# generated using pymatgen
data_CuBiPbS17
_symmetry_space_group_name_H-M   'P 1'
_cell_length_a   5.70271796
_cell_length_b   9.48014241
_cell_length_c   11.02886416
_cell_angle_alpha   89.15977994
_cell_angle_beta   97.90150631
_cell_angle_gamma   99.90553217
_symmetry_Int_Tables_number   1
_chemical_formula_structural   CuBiPbS17
_chemical_formula_sum   'Cu1 Bi1 Pb1 S17'
_cell_volume   581.75923495
_cell_formula_units_Z   1
loop_
 _symmetry_equiv_pos_site_id
 _symmetry_equiv_pos_as_xyz
  1  'x, y, z'
loop_
 _atom_site_type_symbol
 _atom_site_label
 _atom_site_symmetry_multiplicity
 _atom_site_fract_x
 _atom_site_fract_y
 _atom_site_fract_z
 _atom_site_occupancy
  Cu  Cu0  1  0.41444712  0.95967041  0.56136560  1
  Bi  Bi1  1  0.73909132  0.07431839  0.26275652  1
  Pb  Pb2  1  0.29929594  0.37440332  0.14755722  1
  S  S3  1  0.37242626  0.15420352  0.44034787  1
  S  S4  1  0.83691123  0.77717107  0.45942622  1
  S  S5  1  0.79027871  0.31280526  0.16162949  1
  S  S6  1  0.84646244  0.27352263  0.86562086  1
  S  S7  1  0.94398661  0.93075552  0.75110453  1
  S  S8  1  0.83406024  0.95588524  0.56873587  1
  S  S9  1  0.71685812  0.84742738  0.11031433  1
  S  S10  1  0.68963640  0.53367741  0.68198236  1
  S  S11  1  0.36064814  0.75655850  0.85219350  1
  S  S12  1  0.22544029  0.55408306  0.46086502  1
  S  S13  1  0.24696673  0.08427569  0.25880842  1
  S  S14  1  0.32326356  0.51120445  0.64302222  1
  S  S15  1  0.36669442  0.78390908  0.03562067  1
  S  S16  1  0.21969826  0.31425678  0.90646488  1
  S  S17  1  0.76536779  0.32226223  0.68648952  1
  S  S18  1  0.19684595  0.77002108  0.43244089  1
  S  S19  1  0.32323738  0.95606196  0.76540220  1
