# generated using pymatgen
data_Hf4ZnN6
_symmetry_space_group_name_H-M   'P 1'
_cell_length_a   5.37098599
_cell_length_b   5.37771933
_cell_length_c   5.71358656
_cell_angle_alpha   62.24379219
_cell_angle_beta   82.41792058
_cell_angle_gamma   74.50146800
_symmetry_Int_Tables_number   1
_chemical_formula_structural   Hf4ZnN6
_chemical_formula_sum   'Hf4 Zn1 N6'
_cell_volume   140.72465806
_cell_formula_units_Z   1
loop_
 _symmetry_equiv_pos_site_id
 _symmetry_equiv_pos_as_xyz
  1  'x, y, z'
loop_
 _atom_site_type_symbol
 _atom_site_label
 _atom_site_symmetry_multiplicity
 _atom_site_fract_x
 _atom_site_fract_y
 _atom_site_fract_z
 _atom_site_occupancy
  Hf  Hf0  1  0.99751239  0.66525379  0.17542202  1
  Hf  Hf1  1  0.00248761  0.33474621  0.82457798  1
  Hf  Hf2  1  0.50366598  0.83752453  0.81971355  1
  Hf  Hf3  1  0.49633402  0.16247547  0.18028645  1
  Zn  Zn4  1  0.50000000  0.50000000  0.50000000  1
  N  N5  1  0.74654741  0.45346724  0.10205211  1
  N  N6  1  0.25345259  0.54653276  0.89794789  1
  N  N7  1  0.25031642  0.94779250  0.10128932  1
  N  N8  1  0.74968358  0.05220750  0.89871068  1
  N  N9  1  0.26712384  0.26919001  0.50000024  1
  N  N10  1  0.73287616  0.73080999  0.49999976  1
