# generated using pymatgen
data_Hf4ZnN6
_symmetry_space_group_name_H-M   C2/m
_cell_length_a   5.37771933
_cell_length_b   10.11248527
_cell_length_c   5.37098599
_cell_angle_alpha   90.00000000
_cell_angle_beta   105.49853200
_cell_angle_gamma   90.00000000
_symmetry_Int_Tables_number   12
_chemical_formula_structural   Hf4ZnN6
_chemical_formula_sum   'Hf8 Zn2 N12'
_cell_volume   281.46451886
_cell_formula_units_Z   2
loop_
 _symmetry_equiv_pos_site_id
 _symmetry_equiv_pos_as_xyz
  1  'x, y, z'
  2  '-x, -y, -z'
  3  '-x, y, -z'
  4  'x, -y, z'
  5  'x+1/2, y+1/2, z'
  6  '-x+1/2, -y+1/2, -z'
  7  '-x+1/2, y+1/2, -z'
  8  'x+1/2, -y+1/2, z'
loop_
 _atom_site_type_symbol
 _atom_site_label
 _atom_site_symmetry_multiplicity
 _atom_site_fract_x
 _atom_site_fract_y
 _atom_site_fract_z
 _atom_site_occupancy
  Hf  Hf0  4  0.00000000  0.16228899  0.00000000  1
  Hf  Hf1  4  0.00000000  0.34014322  0.50000000  1
  Zn  Zn2  2  0.00000000  0.00000000  0.50000000  1
  N  N3  8  0.24550671  0.19897394  0.74654741  1
  N  N4  4  0.23080987  0.00000000  0.26712384  1
