# generated using pymatgen
data_HfZnN6
_symmetry_space_group_name_H-M   'P 1'
_cell_length_a   3.49186997
_cell_length_b   3.50581346
_cell_length_c   14.05821159
_cell_angle_alpha   88.40554584
_cell_angle_beta   84.22101879
_cell_angle_gamma   119.72814924
_symmetry_Int_Tables_number   1
_chemical_formula_structural   HfZnN6
_chemical_formula_sum   'Hf1 Zn1 N6'
_cell_volume   148.08529295
_cell_formula_units_Z   1
loop_
 _symmetry_equiv_pos_site_id
 _symmetry_equiv_pos_as_xyz
  1  'x, y, z'
loop_
 _atom_site_type_symbol
 _atom_site_label
 _atom_site_symmetry_multiplicity
 _atom_site_fract_x
 _atom_site_fract_y
 _atom_site_fract_z
 _atom_site_occupancy
  Hf  Hf0  1  0.44458247  0.71151537  0.28640627  1
  Zn  Zn1  1  0.87399360  0.45201142  0.11883331  1
  N  N2  1  0.89918106  0.87222207  0.60192212  1
  N  N3  1  0.94408734  0.88882608  0.84205894  1
  N  N4  1  0.75839888  0.36248307  0.31834659  1
  N  N5  1  0.06392846  0.78032987  0.54247968  1
  N  N6  1  0.81234649  0.03870996  0.89487187  1
  N  N7  1  0.53186781  0.77876385  0.13922514  1
