# generated using pymatgen
data_HfZnN6
_symmetry_space_group_name_H-M   P1
_cell_length_a   3.49186997
_cell_length_b   3.50581346
_cell_length_c   14.04804636
_cell_angle_alpha   95.65011824
_cell_angle_beta   91.37806769
_cell_angle_gamma   119.72814924
_symmetry_Int_Tables_number   1
_chemical_formula_structural   HfZnN6
_chemical_formula_sum   'Hf1 Zn1 N6'
_cell_volume   148.08529295
_cell_formula_units_Z   1
loop_
 _symmetry_equiv_pos_site_id
 _symmetry_equiv_pos_as_xyz
  1  'x, y, z'
loop_
 _atom_site_type_symbol
 _atom_site_label
 _atom_site_symmetry_multiplicity
 _atom_site_fract_x
 _atom_site_fract_y
 _atom_site_fract_z
 _atom_site_occupancy
  Hf  Hf0  1  0.73098873  0.99792164  0.28640627  1
  Zn  Zn1  1  0.99282691  0.57084473  0.11883331  1
  N  N2  1  0.07674547  0.68082966  0.31834659  1
  N  N3  1  0.50110318  0.47414419  0.60192212  1
  N  N4  1  0.60640814  0.32280955  0.54247968  1
  N  N5  1  0.67109295  0.91798899  0.13922514  1
  N  N6  1  0.70721836  0.93358183  0.89487187  1
  N  N7  1  0.78614629  0.73088502  0.84205894  1
