# generated using pymatgen
data_HoRuCCl17
_symmetry_space_group_name_H-M   R3
_cell_length_a   12.25790909
_cell_length_b   12.25790909
_cell_length_c   19.22049118
_cell_angle_alpha   90.00000000
_cell_angle_beta   90.00000000
_cell_angle_gamma   120.00000000
_symmetry_Int_Tables_number   146
_chemical_formula_structural   HoRuCCl17
_chemical_formula_sum   'Ho3 Ru3 C3 Cl51'
_cell_volume   2501.08185784
_cell_formula_units_Z   3
loop_
 _symmetry_equiv_pos_site_id
 _symmetry_equiv_pos_as_xyz
  1  'x, y, z'
  2  '-y, x-y, z'
  3  '-x+y, -x, z'
  4  'x+2/3, y+1/3, z+1/3'
  5  '-y+2/3, x-y+1/3, z+1/3'
  6  '-x+y+2/3, -x+1/3, z+1/3'
  7  'x+1/3, y+2/3, z+2/3'
  8  '-y+1/3, x-y+2/3, z+2/3'
  9  '-x+y+1/3, -x+2/3, z+2/3'
loop_
 _atom_site_type_symbol
 _atom_site_label
 _atom_site_symmetry_multiplicity
 _atom_site_fract_x
 _atom_site_fract_y
 _atom_site_fract_z
 _atom_site_occupancy
  Ho  Ho0  3  0.00000000  0.00000000  0.28601586  1
  Ru  Ru1  3  0.00000000  0.00000000  0.01046143  1
  C  C2  3  0.00000000  0.00000000  0.73062504  1
  Cl  Cl3  9  0.04128178  0.85803933  0.04947353  1
  Cl  Cl4  9  0.04539540  0.26702717  0.56807042  1
  Cl  Cl5  9  0.05842155  0.60608848  0.23032036  1
  Cl  Cl6  9  0.11079295  0.55505437  0.90885853  1
  Cl  Cl7  9  0.14402360  0.12327539  0.72987052  1
  Cl  Cl8  3  0.00000000  0.00000000  0.41361149  1
  Cl  Cl9  3  0.00000000  0.00000000  0.89656971  1
