# generated using pymatgen
data_LiPrTe18
_symmetry_space_group_name_H-M   R3
_cell_length_a   10.27500518
_cell_length_b   10.27500518
_cell_length_c   23.61650305
_cell_angle_alpha   90.00000000
_cell_angle_beta   90.00000000
_cell_angle_gamma   120.00000000
_symmetry_Int_Tables_number   146
_chemical_formula_structural   LiPrTe18
_chemical_formula_sum   'Li3 Pr3 Te54'
_cell_volume   2159.28675813
_cell_formula_units_Z   3
loop_
 _symmetry_equiv_pos_site_id
 _symmetry_equiv_pos_as_xyz
  1  'x, y, z'
  2  '-y, x-y, z'
  3  '-x+y, -x, z'
  4  'x+2/3, y+1/3, z+1/3'
  5  '-y+2/3, x-y+1/3, z+1/3'
  6  '-x+y+2/3, -x+1/3, z+1/3'
  7  'x+1/3, y+2/3, z+2/3'
  8  '-y+1/3, x-y+2/3, z+2/3'
  9  '-x+y+1/3, -x+2/3, z+2/3'
loop_
 _atom_site_type_symbol
 _atom_site_label
 _atom_site_symmetry_multiplicity
 _atom_site_fract_x
 _atom_site_fract_y
 _atom_site_fract_z
 _atom_site_occupancy
  Li  Li0  3  0.00000000  0.00000000  0.73590706  1
  Pr  Pr1  3  0.00000000  0.00000000  0.18947052  1
  Te  Te2  9  0.00998558  0.21379250  0.63993257  1
  Te  Te3  9  0.05306956  0.25187490  0.82047507  1
  Te  Te4  9  0.10366196  0.67204093  0.75418991  1
  Te  Te5  9  0.14250007  0.72597074  0.57628890  1
  Te  Te6  9  0.16793241  0.79904409  0.18633252  1
  Te  Te7  9  0.19156316  0.06649675  0.31401473  1
