# generated using pymatgen
data_LiPrTe18
_symmetry_space_group_name_H-M   'P 1'
_cell_length_a   9.85712608
_cell_length_b   9.85712608
_cell_length_c   9.85712608
_cell_angle_alpha   62.82512979
_cell_angle_beta   62.82512979
_cell_angle_gamma   62.82512979
_symmetry_Int_Tables_number   1
_chemical_formula_structural   LiPrTe18
_chemical_formula_sum   'Li1 Pr1 Te18'
_cell_volume   719.76225271
_cell_formula_units_Z   1
loop_
 _symmetry_equiv_pos_site_id
 _symmetry_equiv_pos_as_xyz
  1  'x, y, z'
loop_
 _atom_site_type_symbol
 _atom_site_label
 _atom_site_symmetry_multiplicity
 _atom_site_fract_x
 _atom_site_fract_y
 _atom_site_fract_z
 _atom_site_occupancy
  Li  Li0  1  0.73590706  0.73590706  0.73590706  1
  Pr  Pr1  1  0.18947052  0.18947052  0.18947052  1
  Te  Te2  1  0.85785187  0.32256888  0.08214898  1
  Te  Te3  1  0.08214898  0.85785187  0.32256888  1
  Te  Te4  1  0.32256888  0.08214898  0.85785187  1
  Te  Te5  1  0.24751798  0.50557789  0.18894832  1
  Te  Te6  1  0.18894832  0.24751798  0.50557789  1
  Te  Te7  1  0.50557789  0.18894832  0.24751798  1
  Te  Te8  1  0.81744419  0.38728843  0.35426493  1
  Te  Te9  1  0.35426493  0.81744419  0.38728843  1
  Te  Te10  1  0.38728843  0.35426493  0.81744419  1
  Te  Te11  1  0.84373949  0.42614006  0.64991815  1
  Te  Te12  1  0.64991815  0.84373949  0.42614006  1
  Te  Te13  1  0.42614006  0.64991815  0.84373949  1
  Te  Te14  1  0.85031816  0.71878897  0.15975956  1
  Te  Te15  1  0.15975956  0.85031816  0.71878897  1
  Te  Te16  1  0.71878897  0.15975956  0.85031816  1
  Te  Te17  1  0.01928041  0.56860017  0.87354464  1
  Te  Te18  1  0.87354464  0.01928041  0.56860017  1
  Te  Te19  1  0.56860017  0.87354464  0.01928041  1
