# generated using pymatgen
data_RbMgSnF16
_symmetry_space_group_name_H-M   P1
_cell_length_a   6.05894683
_cell_length_b   6.54554726
_cell_length_c   11.16360518
_cell_angle_alpha   80.47978479
_cell_angle_beta   83.11212043
_cell_angle_gamma   79.98240574
_symmetry_Int_Tables_number   1
_chemical_formula_structural   RbMgSnF16
_chemical_formula_sum   'Rb1 Mg1 Sn1 F16'
_cell_volume   428.08601052
_cell_formula_units_Z   1
loop_
 _symmetry_equiv_pos_site_id
 _symmetry_equiv_pos_as_xyz
  1  'x, y, z'
loop_
 _atom_site_type_symbol
 _atom_site_label
 _atom_site_symmetry_multiplicity
 _atom_site_fract_x
 _atom_site_fract_y
 _atom_site_fract_z
 _atom_site_occupancy
  Rb  Rb0  1  0.83545099  0.41527509  0.38508487  1
  Mg  Mg1  1  0.35298936  0.42133895  0.10272198  1
  Sn  Sn2  1  0.79043614  0.52376829  0.99454394  1
  F  F3  1  0.02649563  0.64888219  0.59606381  1
  F  F4  1  0.10071303  0.35642534  0.02614165  1
  F  F5  1  0.16867804  0.57628834  0.23078898  1
  F  F6  1  0.19074679  0.15539232  0.69471897  1
  F  F7  1  0.21919319  0.21352491  0.56500328  1
  F  F8  1  0.24379687  0.26185243  0.26333564  1
  F  F9  1  0.45844705  0.65197537  0.98131988  1
  F  F10  1  0.50259554  0.57780716  0.59081043  1
  F  F11  1  0.56743843  0.91341064  0.38539484  1
  F  F12  1  0.59255497  0.37428955  0.64635135  1
  F  F13  1  0.63471637  0.26139145  0.01930718  1
  F  F14  1  0.65274184  0.48242832  0.17631987  1
  F  F15  1  0.68182045  0.98769272  0.27059330  1
  F  F16  1  0.85103530  0.53755089  0.81852359  1
  F  F17  1  0.89789142  0.77229422  0.02406866  1
  F  F18  1  0.99072400  0.82189821  0.50006869  1
