# generated using pymatgen
data_RhPbBr12
_symmetry_space_group_name_H-M   'P 1'
_cell_length_a   8.80372539
_cell_length_b   8.80372539
_cell_length_c   8.80372539
_cell_angle_alpha   99.68164788
_cell_angle_beta   99.68164788
_cell_angle_gamma   99.68164788
_symmetry_Int_Tables_number   1
_chemical_formula_structural   RhPbBr12
_chemical_formula_sum   'Rh1 Pb1 Br12'
_cell_volume   649.34769233
_cell_formula_units_Z   1
loop_
 _symmetry_equiv_pos_site_id
 _symmetry_equiv_pos_as_xyz
  1  'x, y, z'
loop_
 _atom_site_type_symbol
 _atom_site_label
 _atom_site_symmetry_multiplicity
 _atom_site_fract_x
 _atom_site_fract_y
 _atom_site_fract_z
 _atom_site_occupancy
  Rh  Rh0  1  0.25335083  0.25335083  0.25335083  1
  Pb  Pb1  1  0.95801251  0.95801251  0.95801251  1
  Br  Br2  1  0.12156156  0.57753655  0.58743994  1
  Br  Br3  1  0.57753655  0.58743994  0.12156156  1
  Br  Br4  1  0.58743994  0.12156156  0.57753655  1
  Br  Br5  1  0.26727941  0.97122509  0.16440033  1
  Br  Br6  1  0.97122509  0.16440033  0.26727941  1
  Br  Br7  1  0.16440033  0.26727941  0.97122509  1
  Br  Br8  1  0.33379183  0.23514508  0.53493995  1
  Br  Br9  1  0.23514508  0.53493995  0.33379183  1
  Br  Br10  1  0.53493995  0.33379183  0.23514508  1
  Br  Br11  1  0.83454680  0.01003612  0.62523155  1
  Br  Br12  1  0.01003612  0.62523155  0.83454680  1
  Br  Br13  1  0.62523155  0.83454680  0.01003612  1
