# generated using pymatgen
data_RhPbBr12
_symmetry_space_group_name_H-M   R3
_cell_length_a   13.45659516
_cell_length_b   13.45659516
_cell_length_c   12.42217235
_cell_angle_alpha   90.00000000
_cell_angle_beta   90.00000000
_cell_angle_gamma   120.00000000
_symmetry_Int_Tables_number   146
_chemical_formula_structural   RhPbBr12
_chemical_formula_sum   'Rh3 Pb3 Br36'
_cell_volume   1948.04307700
_cell_formula_units_Z   3
loop_
 _symmetry_equiv_pos_site_id
 _symmetry_equiv_pos_as_xyz
  1  'x, y, z'
  2  '-y, x-y, z'
  3  '-x+y, -x, z'
  4  'x+2/3, y+1/3, z+1/3'
  5  '-y+2/3, x-y+1/3, z+1/3'
  6  '-x+y+2/3, -x+1/3, z+1/3'
  7  'x+1/3, y+2/3, z+2/3'
  8  '-y+1/3, x-y+2/3, z+2/3'
  9  '-x+y+1/3, -x+2/3, z+2/3'
loop_
 _atom_site_type_symbol
 _atom_site_label
 _atom_site_symmetry_multiplicity
 _atom_site_fract_x
 _atom_site_fract_y
 _atom_site_fract_z
 _atom_site_occupancy
  Rh  Rh0  3  0.00000000  0.00000000  0.25335083  1
  Pb  Pb1  3  0.00000000  0.00000000  0.95801251  1
  Br  Br2  9  0.01127531  0.19803994  0.82327149  1
  Br  Br3  9  0.02604888  0.50807274  0.09551268  1
  Br  Br4  9  0.03009872  0.16307652  0.13430161  1
  Br  Br5  9  0.16698100  0.13281387  0.36795895  1
