# generated using pymatgen
data_TiZnN6
_symmetry_space_group_name_H-M   'P 1'
_cell_length_a   3.33566965
_cell_length_b   3.34336622
_cell_length_c   14.38722778
_cell_angle_alpha   91.30209705
_cell_angle_beta   91.69654944
_cell_angle_gamma   119.68809093
_symmetry_Int_Tables_number   1
_chemical_formula_structural   TiZnN6
_chemical_formula_sum   'Ti1 Zn1 N6'
_cell_volume   139.19955074
_cell_formula_units_Z   1
loop_
 _symmetry_equiv_pos_site_id
 _symmetry_equiv_pos_as_xyz
  1  'x, y, z'
loop_
 _atom_site_type_symbol
 _atom_site_label
 _atom_site_symmetry_multiplicity
 _atom_site_fract_x
 _atom_site_fract_y
 _atom_site_fract_z
 _atom_site_occupancy
  Ti  Ti0  1  0.79547378  0.22452980  0.80046928  1
  Zn  Zn1  1  0.42295656  0.53209181  0.64126653  1
  N  N2  1  0.13786860  0.89697765  0.82741491  1
  N  N3  1  0.07216935  0.48592424  0.35239592  1
  N  N4  1  0.58883653  0.77496407  0.10483354  1
  N  N5  1  0.01261316  0.58854672  0.42261033  1
  N  N6  1  0.76253435  0.20070250  0.66596585  1
  N  N7  1  0.49152677  0.91218701  0.16576694  1
