# generated using pymatgen
data_TiZnN18
_symmetry_space_group_name_H-M   'P 1'
_cell_length_a   7.68137915
_cell_length_b   7.68137915
_cell_length_c   10.88660564
_cell_angle_alpha   69.34191843
_cell_angle_beta   110.65808157
_cell_angle_gamma   120.00000000
_symmetry_Int_Tables_number   1
_chemical_formula_structural   TiZnN18
_chemical_formula_sum   'Ti1 Zn1 N18'
_cell_volume   508.04019824
_cell_formula_units_Z   1
loop_
 _symmetry_equiv_pos_site_id
 _symmetry_equiv_pos_as_xyz
  1  'x, y, z'
loop_
 _atom_site_type_symbol
 _atom_site_label
 _atom_site_symmetry_multiplicity
 _atom_site_fract_x
 _atom_site_fract_y
 _atom_site_fract_z
 _atom_site_occupancy
  Ti  Ti0  1  0.39051378  0.60948622  0.17154135  1
  Zn  Zn1  1  0.62781700  0.37218300  0.88345099  1
  N  N2  1  0.09430383  0.28884747  0.97599914  1
  N  N3  1  0.17054278  0.90569617  0.97599914  1
  N  N4  1  0.71115253  0.82945722  0.97599914  1
  N  N5  1  0.56021285  0.05832836  0.62971778  1
  N  N6  1  0.12783330  0.43978715  0.62971778  1
  N  N7  1  0.94167164  0.87216670  0.62971778  1
  N  N8  1  0.28793142  0.51763748  0.68551189  1
  N  N9  1  0.91521794  0.71206858  0.68551189  1
  N  N10  1  0.48236252  0.08478206  0.68551189  1
  N  N11  1  0.74600939  0.98542336  0.31367001  1
  N  N12  1  0.55308398  0.25399061  0.31367001  1
  N  N13  1  0.01457664  0.44691602  0.31367001  1
  N  N14  1  0.19277325  0.40054397  0.04499275  1
  N  N15  1  0.25276346  0.80722675  0.04499275  1
  N  N16  1  0.59945603  0.74723654  0.04499275  1
  N  N17  1  0.15308056  0.48674172  0.27656760  1
  N  N18  1  0.61022875  0.84691944  0.27656760  1
  N  N19  1  0.51325828  0.38977125  0.27656760  1
