# generated using pymatgen
data_Zr4ZnN6
_symmetry_space_group_name_H-M   P1
_cell_length_a   5.44723843
_cell_length_b   5.45269454
_cell_length_c   5.82296153
_cell_angle_alpha   62.08978290
_cell_angle_beta   82.89391165
_cell_angle_gamma   74.76305763
_symmetry_Int_Tables_number   1
_chemical_formula_structural   Zr4ZnN6
_chemical_formula_sum   'Zr4 Zn1 N6'
_cell_volume   147.46399280
_cell_formula_units_Z   1
loop_
 _symmetry_equiv_pos_site_id
 _symmetry_equiv_pos_as_xyz
  1  'x, y, z'
loop_
 _atom_site_type_symbol
 _atom_site_label
 _atom_site_symmetry_multiplicity
 _atom_site_fract_x
 _atom_site_fract_y
 _atom_site_fract_z
 _atom_site_occupancy
  Zr  Zr0  1  0.00479646  0.70299241  0.81593347  1
  Zr  Zr1  1  0.00661002  0.37930441  0.46255445  1
  Zr  Zr2  1  0.50217696  0.19665577  0.82227262  1
  Zr  Zr3  1  0.50328307  0.87519769  0.46159496  1
  Zn  Zn4  1  0.52632997  0.50186552  0.16996279  1
  N  N5  1  0.25299787  0.99070894  0.73426879  1
  N  N6  1  0.25582481  0.58576729  0.54022875  1
  N  N7  1  0.27468881  0.31379942  0.13651649  1
  N  N8  1  0.73337856  0.76818359  0.13669893  1
  N  N9  1  0.74933567  0.09857168  0.53203043  1
  N  N10  1  0.75246432  0.49269553  0.73916437  1
