# generated using pymatgen
data_ZrZnN14
_symmetry_space_group_name_H-M   P1
_cell_length_a   3.61519145
_cell_length_b   11.43097596
_cell_length_c   12.72845889
_cell_angle_alpha   85.78791450
_cell_angle_beta   89.21378135
_cell_angle_gamma   85.87203806
_symmetry_Int_Tables_number   1
_chemical_formula_structural   ZrZnN14
_chemical_formula_sum   'Zr1 Zn1 N14'
_cell_volume   523.20524230
_cell_formula_units_Z   1
loop_
 _symmetry_equiv_pos_site_id
 _symmetry_equiv_pos_as_xyz
  1  'x, y, z'
loop_
 _atom_site_type_symbol
 _atom_site_label
 _atom_site_symmetry_multiplicity
 _atom_site_fract_x
 _atom_site_fract_y
 _atom_site_fract_z
 _atom_site_occupancy
  Zr  Zr0  1  0.06575184  0.84017714  0.60522459  1
  Zn  Zn1  1  0.58018107  0.72485818  0.77495106  1
  N  N2  1  0.07997710  0.73251354  0.74507925  1
  N  N3  1  0.26006061  0.66736587  0.46958861  1
  N  N4  1  0.31407997  0.10596137  0.77899735  1
  N  N5  1  0.34789400  0.58889947  0.42556630  1
  N  N6  1  0.52214688  0.08361748  0.84213347  1
  N  N7  1  0.54735469  0.91579517  0.60220168  1
  N  N8  1  0.55001760  0.87742069  0.17169154  1
  N  N9  1  0.61602901  0.48165396  0.99513340  1
  N  N10  1  0.68747900  0.15894091  0.06626962  1
  N  N11  1  0.70665317  0.83971785  0.10484248  1
  N  N12  1  0.72191063  0.43613331  0.92531720  1
  N  N13  1  0.90145569  0.19901275  0.11138381  1
  N  N14  1  0.93652598  0.12377403  0.36992248  1
  N  N15  1  0.98664686  0.02695867  0.36673088  1
