# generated using pymatgen
data_ZrZnN6
_symmetry_space_group_name_H-M   'P 1'
_cell_length_a   3.52145932
_cell_length_b   3.52273293
_cell_length_c   13.12885921
_cell_angle_alpha   90.06738809
_cell_angle_beta   96.82249515
_cell_angle_gamma   119.76747627
_symmetry_Int_Tables_number   1
_chemical_formula_structural   ZrZnN6
_chemical_formula_sum   'Zr1 Zn1 N6'
_cell_volume   140.03167887
_cell_formula_units_Z   1
loop_
 _symmetry_equiv_pos_site_id
 _symmetry_equiv_pos_as_xyz
  1  'x, y, z'
loop_
 _atom_site_type_symbol
 _atom_site_label
 _atom_site_symmetry_multiplicity
 _atom_site_fract_x
 _atom_site_fract_y
 _atom_site_fract_z
 _atom_site_occupancy
  Zr  Zr0  1  0.43263707  0.21810987  0.66835012  1
  Zn  Zn1  1  0.22611310  0.60202667  0.84851625  1
  N  N2  1  0.82725217  0.58260670  0.14831297  1
  N  N3  1  0.54532086  0.26053962  0.82850669  1
  N  N4  1  0.27417167  0.03289061  0.40515936  1
  N  N5  1  0.07486360  0.54275200  0.63173981  1
  N  N6  1  0.05751154  0.62638401  0.09233121  1
  N  N7  1  0.44462220  0.01540243  0.34073809  1
