# generated using pymatgen
data_AlI7
_symmetry_space_group_name_H-M   'P 1'
_cell_length_a   6.84767693
_cell_length_b   8.31931508
_cell_length_c   9.21646023
_cell_angle_alpha   77.68463846
_cell_angle_beta   105.53323079
_cell_angle_gamma   108.30129639
_symmetry_Int_Tables_number   1
_chemical_formula_structural   AlI7
_chemical_formula_sum   'Al1 I7'
_cell_volume   475.46378955
_cell_formula_units_Z   1
loop_
 _symmetry_equiv_pos_site_id
 _symmetry_equiv_pos_as_xyz
  1  'x, y, z'
loop_
 _atom_site_type_symbol
 _atom_site_label
 _atom_site_symmetry_multiplicity
 _atom_site_fract_x
 _atom_site_fract_y
 _atom_site_fract_z
 _atom_site_occupancy
  I  I0  1  0.69005740  0.76072484  0.22275995  1
  I  I1  1  0.07462719  0.11729772  0.88398600  1
  I  I2  1  0.82465011  0.50829464  0.89612681  1
  I  I3  1  0.27361861  0.64417768  0.05694271  1
  I  I4  1  0.63930184  0.99783939  0.39046943  1
  I  I5  1  0.15350129  0.56804949  0.55247539  1
  I  I6  1  0.55619437  0.23029864  0.55907536  1
  Al  Al7  1  0.93166190  0.35174763  0.72017282  1
