# generated using pymatgen
data_AlI7
_symmetry_space_group_name_H-M   P1
_cell_length_a   6.84767693
_cell_length_b   8.31931508
_cell_length_c   9.21646023
_cell_angle_alpha   77.68463846
_cell_angle_beta   74.46676921
_cell_angle_gamma   71.69870361
_symmetry_Int_Tables_number   1
_chemical_formula_structural   AlI7
_chemical_formula_sum   'Al1 I7'
_cell_volume   475.46378955
_cell_formula_units_Z   1
loop_
 _symmetry_equiv_pos_site_id
 _symmetry_equiv_pos_as_xyz
  1  'x, y, z'
loop_
 _atom_site_type_symbol
 _atom_site_label
 _atom_site_symmetry_multiplicity
 _atom_site_fract_x
 _atom_site_fract_y
 _atom_site_fract_z
 _atom_site_occupancy
  Al  Al0  1  0.93166190  0.64825237  0.27982718  1
  I  I1  1  0.07462719  0.88270228  0.11601400  1
  I  I2  1  0.15350129  0.43195051  0.44752461  1
  I  I3  1  0.27361861  0.35582232  0.94305729  1
  I  I4  1  0.55619437  0.76970136  0.44092464  1
  I  I5  1  0.63930184  0.00216061  0.60953057  1
  I  I6  1  0.69005740  0.23927516  0.77724005  1
  I  I7  1  0.82465011  0.49170536  0.10387319  1
