# generated using pymatgen
data_Ba4Au
_symmetry_space_group_name_H-M   C2/m
_cell_length_a   14.76641421
_cell_length_b   6.56782698
_cell_length_c   13.03176785
_cell_angle_alpha   90.00000000
_cell_angle_beta   115.69939137
_cell_angle_gamma   90.00000000
_symmetry_Int_Tables_number   12
_chemical_formula_structural   Ba4Au
_chemical_formula_sum   'Ba16 Au4'
_cell_volume   1138.84395074
_cell_formula_units_Z   4
loop_
 _symmetry_equiv_pos_site_id
 _symmetry_equiv_pos_as_xyz
  1  'x, y, z'
  2  '-x, -y, -z'
  3  '-x, y, -z'
  4  'x, -y, z'
  5  'x+1/2, y+1/2, z'
  6  '-x+1/2, -y+1/2, -z'
  7  '-x+1/2, y+1/2, -z'
  8  'x+1/2, -y+1/2, z'
loop_
 _atom_site_type_symbol
 _atom_site_label
 _atom_site_symmetry_multiplicity
 _atom_site_fract_x
 _atom_site_fract_y
 _atom_site_fract_z
 _atom_site_occupancy
  Ba  Ba0  4  0.12163000  0.50000000  0.93625732  1
  Ba  Ba1  4  0.12576620  0.00000000  0.68807405  1
  Ba  Ba2  4  0.12621477  0.50000000  0.43678640  1
  Ba  Ba3  4  0.12658332  0.00000000  0.18872557  1
  Au  Au4  4  0.12535407  0.50000000  0.18866368  1
