# generated using pymatgen
data_Ba4Au
_symmetry_space_group_name_H-M   'P 1'
_cell_length_a   6.56782698
_cell_length_b   8.07809260
_cell_length_c   13.03176785
_cell_angle_alpha   113.34327282
_cell_angle_beta   90.01515187
_cell_angle_gamma   113.93889751
_symmetry_Int_Tables_number   1
_chemical_formula_structural   Ba4Au
_chemical_formula_sum   'Ba8 Au2'
_cell_volume   569.42177596
_cell_formula_units_Z   2
loop_
 _symmetry_equiv_pos_site_id
 _symmetry_equiv_pos_as_xyz
  1  'x, y, z'
loop_
 _atom_site_type_symbol
 _atom_site_label
 _atom_site_symmetry_multiplicity
 _atom_site_fract_x
 _atom_site_fract_y
 _atom_site_fract_z
 _atom_site_occupancy
  Ba  Ba0  1  0.84383154  0.35382685  0.33342719  1
  Ba  Ba1  1  0.09312090  0.84986490  0.20856674  1
  Ba  Ba2  1  0.59282064  0.85200679  0.45951641  1
  Ba  Ba3  1  0.34482718  0.35456395  0.08536636  1
  Ba  Ba4  1  0.59655976  0.85813731  0.96038347  1
  Ba  Ba5  1  0.09238233  0.85093552  0.70731443  1
  Ba  Ba6  1  0.84120411  0.34814787  0.83320552  1
  Ba  Ba7  1  0.34516805  0.35665584  0.58502674  1
  Au  Au8  1  0.59155244  0.85068917  0.70797712  1
  Au  Au9  1  0.84581572  0.35566059  0.08530447  1
