# generated using pymatgen
data_BaLa2Ir
_symmetry_space_group_name_H-M   'P 1'
_cell_length_a   4.31195990
_cell_length_b   4.31195990
_cell_length_c   10.26642368
_cell_angle_alpha   78.20801706
_cell_angle_beta   78.20801706
_cell_angle_gamma   60.16788176
_symmetry_Int_Tables_number   1
_chemical_formula_structural   BaLa2Ir
_chemical_formula_sum   'Ba1 La2 Ir1'
_cell_volume   160.90462145
_cell_formula_units_Z   1
loop_
 _symmetry_equiv_pos_site_id
 _symmetry_equiv_pos_as_xyz
  1  'x, y, z'
loop_
 _atom_site_type_symbol
 _atom_site_label
 _atom_site_symmetry_multiplicity
 _atom_site_fract_x
 _atom_site_fract_y
 _atom_site_fract_z
 _atom_site_occupancy
  Ba  Ba0  1  0.99717963  0.99717963  0.79013073  1.0
  La  La1  1  0.46543049  0.46543049  0.42972222  1.0
  La  La2  1  0.22580816  0.22580816  0.13758123  1.0
  Ir  Ir3  1  0.84620949  0.84620949  0.28321457  1.0
