# generated using pymatgen
data_CsTe2Pd
_symmetry_space_group_name_H-M   'P 1'
_cell_length_a   4.13251425
_cell_length_b   7.50874158
_cell_length_c   9.95893192
_cell_angle_alpha   102.51948058
_cell_angle_beta   90.12472177
_cell_angle_gamma   105.91329856
_symmetry_Int_Tables_number   1
_chemical_formula_structural   CsTe2Pd
_chemical_formula_sum   'Cs2 Te4 Pd2'
_cell_volume   289.49116477
_cell_formula_units_Z   2
loop_
 _symmetry_equiv_pos_site_id
 _symmetry_equiv_pos_as_xyz
  1  'x, y, z'
loop_
 _atom_site_type_symbol
 _atom_site_label
 _atom_site_symmetry_multiplicity
 _atom_site_fract_x
 _atom_site_fract_y
 _atom_site_fract_z
 _atom_site_occupancy
  Te  Te0  1  0.98616755  0.48753768  0.83352542  1
  Pd  Pd1  1  0.79256296  0.10093889  0.36510453  1
  Te  Te2  1  0.26894966  0.05465490  0.18185687  1
  Te  Te3  1  0.26937261  0.05257761  0.52373236  1
  Cs  Cs4  1  0.72067183  0.95366138  0.83445883  1
  Pd  Pd5  1  0.46290997  0.43912804  0.65215039  1
  Cs  Cs6  1  0.53413665  0.58663386  0.18112789  1
  Te  Te7  1  0.98632044  0.48861530  0.49374104  1
