# generated using pymatgen
data_CsTe2Pd
_symmetry_space_group_name_H-M   C2/m
_cell_length_a   14.44198640
_cell_length_b   4.13251425
_cell_length_c   9.95893192
_cell_angle_alpha   90.00000000
_cell_angle_beta   103.06360180
_cell_angle_gamma   90.00000000
_symmetry_Int_Tables_number   12
_chemical_formula_structural   CsTe2Pd
_chemical_formula_sum   'Cs4 Te8 Pd4'
_cell_volume   578.98379207
_cell_formula_units_Z   4
loop_
 _symmetry_equiv_pos_site_id
 _symmetry_equiv_pos_as_xyz
  1  'x, y, z'
  2  '-x, -y, -z'
  3  '-x, y, -z'
  4  'x, -y, z'
  5  'x+1/2, y+1/2, z'
  6  '-x+1/2, -y+1/2, -z'
  7  '-x+1/2, y+1/2, -z'
  8  'x+1/2, -y+1/2, z'
loop_
 _atom_site_type_symbol
 _atom_site_label
 _atom_site_symmetry_multiplicity
 _atom_site_fract_x
 _atom_site_fract_y
 _atom_site_fract_z
 _atom_site_occupancy
  Cs  Cs0  4  0.09118774  0.50000000  0.82583137  1
  Te  Te1  4  0.14064585  0.00000000  0.51510490  1
  Te  Te2  4  0.14187411  0.00000000  0.17510204  1
  Pd  Pd3  4  0.16482650  0.50000000  0.35647707  1
