# generated using pymatgen
data_FeCoH2
_symmetry_space_group_name_H-M   'P 1'
_cell_length_a   3.76402198
_cell_length_b   3.76432142
_cell_length_c   4.58011246
_cell_angle_alpha   114.17157752
_cell_angle_beta   114.18210076
_cell_angle_gamma   90.02965461
_symmetry_Int_Tables_number   1
_chemical_formula_structural   FeCoH2
_chemical_formula_sum   'Fe2 Co2 H4'
_cell_volume   52.89512363
_cell_formula_units_Z   2
loop_
 _symmetry_equiv_pos_site_id
 _symmetry_equiv_pos_as_xyz
  1  'x, y, z'
loop_
 _atom_site_type_symbol
 _atom_site_label
 _atom_site_symmetry_multiplicity
 _atom_site_fract_x
 _atom_site_fract_y
 _atom_site_fract_z
 _atom_site_occupancy
  Fe  Fe0  1  0.46470687  0.73156518  0.57908654  1
  H  H1  1  0.71487945  0.98270828  0.08016948  1
  Co  Co2  1  0.21429954  0.98163944  0.07898152  1
  Co  Co3  1  0.71474409  0.48124820  0.07894792  1
  Fe  Fe4  1  0.96476626  0.23164642  0.57954985  1
  H  H5  1  0.21397309  0.48062837  0.07924162  1
  H  H6  1  0.96374953  0.73161668  0.57788366  1
  H  H7  1  0.46477401  0.23256172  0.57991129  1
