# generated using pymatgen
data_GdScBi
_symmetry_space_group_name_H-M   'P 1'
_cell_length_a   4.48591825
_cell_length_b   4.48366782
_cell_length_c   8.41452217
_cell_angle_alpha   89.95998443
_cell_angle_beta   90.01748779
_cell_angle_gamma   89.97897956
_symmetry_Int_Tables_number   1
_chemical_formula_structural   GdScBi
_chemical_formula_sum   'Gd2 Sc2 Bi2'
_cell_volume   169.24431451
_cell_formula_units_Z   2
loop_
 _symmetry_equiv_pos_site_id
 _symmetry_equiv_pos_as_xyz
  1  'x, y, z'
loop_
 _atom_site_type_symbol
 _atom_site_label
 _atom_site_symmetry_multiplicity
 _atom_site_fract_x
 _atom_site_fract_y
 _atom_site_fract_z
 _atom_site_occupancy
  Gd  Gd0  1  0.94975096  0.52876467  0.76479834  1
  Sc  Sc1  1  0.94956255  0.02876447  0.41807005  1
  Gd  Gd2  1  0.44966182  0.02883208  0.07167012  1
  Bi  Bi3  1  0.94962096  0.52919173  0.15429597  1
  Sc  Sc4  1  0.44949621  0.52858579  0.41802612  1
  Bi  Bi5  1  0.44997036  0.02859946  0.68186110  1
