# generated using pymatgen
data_Sb5PPb2
_symmetry_space_group_name_H-M   'P 1'
_cell_length_a   6.09557426
_cell_length_b   6.35306161
_cell_length_c   6.44048309
_cell_angle_alpha   95.34189347
_cell_angle_beta   89.91597069
_cell_angle_gamma   90.10733251
_symmetry_Int_Tables_number   1
_chemical_formula_structural   Sb5PPb2
_chemical_formula_sum   'Sb5 P1 Pb2'
_cell_volume   248.32744184
_cell_formula_units_Z   1
loop_
 _symmetry_equiv_pos_site_id
 _symmetry_equiv_pos_as_xyz
  1  'x, y, z'
loop_
 _atom_site_type_symbol
 _atom_site_label
 _atom_site_symmetry_multiplicity
 _atom_site_fract_x
 _atom_site_fract_y
 _atom_site_fract_z
 _atom_site_occupancy
  Sb  Sb0  1  0.25161994  0.36133757  0.90122801  1
  Sb  Sb1  1  0.75216895  0.38983026  0.42042884  1
  P  P2  1  0.75137848  0.79049498  0.47553188  1
  Pb  Pb3  1  0.75133425  0.33188546  0.93326211  1
  Sb  Sb4  1  0.75242740  0.84383523  0.87231946  1
  Sb  Sb5  1  0.25201723  0.31789696  0.45250803  1
  Sb  Sb6  1  0.25223297  0.81316513  0.94706529  1
  Pb  Pb7  1  0.25148943  0.83501637  0.42931053  1
