# generated using pymatgen
data_Sb5PPb2
_symmetry_space_group_name_H-M   Amm2
_cell_length_a   6.09557426
_cell_length_b   8.61525519
_cell_length_c   9.45831944
_cell_angle_alpha   90.00000000
_cell_angle_beta   90.00000000
_cell_angle_gamma   90.00000000
_symmetry_Int_Tables_number   38
_chemical_formula_structural   Sb5PPb2
_chemical_formula_sum   'Sb10 P2 Pb4'
_cell_volume   496.70296211
_cell_formula_units_Z   2
loop_
 _symmetry_equiv_pos_site_id
 _symmetry_equiv_pos_as_xyz
  1  'x, y, z'
  2  '-x, -y, z'
  3  '-x, y, z'
  4  'x, -y, z'
  5  'x, y+1/2, z+1/2'
  6  '-x, -y+1/2, z+1/2'
  7  '-x, y+1/2, z+1/2'
  8  'x, -y+1/2, z+1/2'
loop_
 _atom_site_type_symbol
 _atom_site_label
 _atom_site_symmetry_multiplicity
 _atom_site_fract_x
 _atom_site_fract_y
 _atom_site_fract_z
 _atom_site_occupancy
  Sb  Sb0  4  0.00000000  0.22788388  0.35168728  1
  Sb  Sb1  4  0.50000000  0.24781093  0.29968104  1
  Sb  Sb2  2  0.50000000  0.00000000  0.09704135  1
  P  P3  2  0.00000000  0.00000000  0.52446812  1
  Pb  Pb4  2  0.00000000  0.00000000  0.06629825  1
  Pb  Pb5  2  0.50000000  0.00000000  0.56983949  1
