# generated using pymatgen
data_SbAu
_symmetry_space_group_name_H-M   'P 1'
_cell_length_a   4.08132744
_cell_length_b   4.08132039
_cell_length_c   6.82196474
_cell_angle_alpha   89.95719087
_cell_angle_beta   90.02773307
_cell_angle_gamma   120.05906830
_symmetry_Int_Tables_number   1
_chemical_formula_structural   SbAu
_chemical_formula_sum   'Sb2 Au2'
_cell_volume   98.35202384
_cell_formula_units_Z   2
loop_
 _symmetry_equiv_pos_site_id
 _symmetry_equiv_pos_as_xyz
  1  'x, y, z'
loop_
 _atom_site_type_symbol
 _atom_site_label
 _atom_site_symmetry_multiplicity
 _atom_site_fract_x
 _atom_site_fract_y
 _atom_site_fract_z
 _atom_site_occupancy
  Au  Au0  1  0.56243759  0.33889896  0.28295541  1
  Sb  Sb1  1  0.89589471  0.00522709  0.03324251  1
  Sb  Sb2  1  0.89603776  0.00562969  0.53261971  1
  Au  Au3  1  0.22946091  0.67179197  0.78304696  1
