# generated using pymatgen
data_SeS
_symmetry_space_group_name_H-M   'P 1'
_cell_length_a   6.69384737
_cell_length_b   5.21503320
_cell_length_c   6.60128546
_cell_angle_alpha   80.17712556
_cell_angle_beta   80.53568965
_cell_angle_gamma   63.83649488
_symmetry_Int_Tables_number   1
_chemical_formula_structural   SeS
_chemical_formula_sum   'Se3 S3'
_cell_volume   202.75902245
_cell_formula_units_Z   3
loop_
 _symmetry_equiv_pos_site_id
 _symmetry_equiv_pos_as_xyz
  1  'x, y, z'
loop_
 _atom_site_type_symbol
 _atom_site_label
 _atom_site_symmetry_multiplicity
 _atom_site_fract_x
 _atom_site_fract_y
 _atom_site_fract_z
 _atom_site_occupancy
  Se  Se0  1  0.30907512  0.85671198  0.98663390  1
  S  S1  1  0.75904244  0.13602750  0.21396151  1
  Se  Se2  1  0.86046243  0.17274195  0.51305646  1
  S  S3  1  0.41092968  0.85671169  0.65063083  1
  Se  Se4  1  0.17952780  0.72872484  0.53263289  1
  S  S5  1  0.96538305  0.25191787  0.99490029  1
