# generated using pymatgen
data_SeS
_symmetry_space_group_name_H-M   P1
_cell_length_a   5.21503320
_cell_length_b   6.42022875
_cell_length_c   6.60128546
_cell_angle_alpha   91.88327803
_cell_angle_beta   99.82287444
_cell_angle_gamma   110.64369772
_symmetry_Int_Tables_number   1
_chemical_formula_structural   SeS
_chemical_formula_sum   'Se3 S3'
_cell_volume   202.75902245
_cell_formula_units_Z   3
loop_
 _symmetry_equiv_pos_site_id
 _symmetry_equiv_pos_as_xyz
  1  'x, y, z'
loop_
 _atom_site_type_symbol
 _atom_site_label
 _atom_site_symmetry_multiplicity
 _atom_site_fract_x
 _atom_site_fract_y
 _atom_site_fract_z
 _atom_site_occupancy
  Se  Se0  1  0.03320438  0.86046243  0.48694354  1
  Se  Se1  1  0.16578710  0.30907512  0.01336610  1
  Se  Se2  1  0.90825264  0.17952780  0.46736711  1
  S  S3  1  0.21730092  0.96538305  0.00509971  1
  S  S4  1  0.26764137  0.41092968  0.34936917  1
  S  S5  1  0.89506994  0.75904244  0.78603849  1
