# generated using pymatgen
data_Sm(FeC)2
_symmetry_space_group_name_H-M   'P 1'
_cell_length_a   5.15221727
_cell_length_b   5.13329146
_cell_length_c   5.48052311
_cell_angle_alpha   107.88782515
_cell_angle_beta   107.89770722
_cell_angle_gamma   110.26587510
_symmetry_Int_Tables_number   1
_chemical_formula_structural   Sm(FeC)2
_chemical_formula_sum   'Sm2 Fe4 C4'
_cell_volume   114.66863016
_cell_formula_units_Z   2
loop_
 _symmetry_equiv_pos_site_id
 _symmetry_equiv_pos_as_xyz
  1  'x, y, z'
loop_
 _atom_site_type_symbol
 _atom_site_label
 _atom_site_symmetry_multiplicity
 _atom_site_fract_x
 _atom_site_fract_y
 _atom_site_fract_z
 _atom_site_occupancy
  Sm  Sm0  1  0.44028068  0.58243787  0.11642146  1
  Fe  Fe1  1  0.82223934  0.46507472  0.88171172  1
  Fe  Fe2  1  0.55657887  0.19971675  0.35124493  1
  Fe  Fe3  1  0.07289434  0.21580581  0.38305134  1
  C  C4  1  0.12166437  0.90118062  0.11689337  1
  Fe  Fe5  1  0.80653137  0.94970673  0.85062891  1
  Sm  Sm6  1  0.18969160  0.83320326  0.61692685  1
  C  C7  1  0.87092233  0.15064485  0.61720771  1
  C  C8  1  0.50747442  0.51397532  0.61620402  1
  C  C9  1  0.75865746  0.26501203  0.11692672  1
