# generated using pymatgen
data_TbCe(Ho2Te3)2
_symmetry_space_group_name_H-M   Cm
_cell_length_a   18.94235249
_cell_length_b   4.31827361
_cell_length_c   8.71414178
_cell_angle_alpha   90.00000000
_cell_angle_beta   103.74963044
_cell_angle_gamma   90.00000000
_symmetry_Int_Tables_number   8
_chemical_formula_structural   TbCe(Ho2Te3)2
_chemical_formula_sum   'Tb2 Ce2 Ho8 Te12'
_cell_volume   692.37531592
_cell_formula_units_Z   2
loop_
 _symmetry_equiv_pos_site_id
 _symmetry_equiv_pos_as_xyz
  1  'x, y, z'
  2  'x, -y, z'
  3  'x+1/2, y+1/2, z'
  4  'x+1/2, -y+1/2, z'
loop_
 _atom_site_type_symbol
 _atom_site_label
 _atom_site_symmetry_multiplicity
 _atom_site_fract_x
 _atom_site_fract_y
 _atom_site_fract_z
 _atom_site_occupancy
  Tb  Tb0  2  0.48723178  0.00000000  0.41904444  1
  Ce  Ce1  2  0.15111096  0.00000000  0.74726498  1
  Ho  Ho2  2  0.14984059  0.00000000  0.24768764  1
  Ho  Ho3  2  0.31521042  0.50000000  0.58182684  1
  Ho  Ho4  2  0.31562884  0.50000000  0.07679498  1
  Ho  Ho5  2  0.48849620  0.00000000  0.91308041  1
  Te  Te6  2  0.15183496  0.50000000  0.00708413  1
  Te  Te7  2  0.15190165  0.50000000  0.48883373  1
  Te  Te8  2  0.31802483  0.00000000  0.33054286  1
  Te  Te9  2  0.32248290  0.00000000  0.83320813  1
  Te  Te10  2  0.48019896  0.50000000  0.66411436  1
  Te  Te11  2  0.48309664  0.50000000  0.16137302  1
