# generated using pymatgen
data_TePb5Cl8
_symmetry_space_group_name_H-M   C2/m
_cell_length_a   18.70632192
_cell_length_b   4.54228861
_cell_length_c   13.38552829
_cell_angle_alpha   90.00000000
_cell_angle_beta   123.69000450
_cell_angle_gamma   90.00000000
_symmetry_Int_Tables_number   12
_chemical_formula_structural   TePb5Cl8
_chemical_formula_sum   'Te2 Pb10 Cl16'
_cell_volume   946.34293142
_cell_formula_units_Z   2
loop_
 _symmetry_equiv_pos_site_id
 _symmetry_equiv_pos_as_xyz
  1  'x, y, z'
  2  '-x, -y, -z'
  3  '-x, y, -z'
  4  'x, -y, z'
  5  'x+1/2, y+1/2, z'
  6  '-x+1/2, -y+1/2, -z'
  7  '-x+1/2, y+1/2, -z'
  8  'x+1/2, -y+1/2, z'
loop_
 _atom_site_type_symbol
 _atom_site_label
 _atom_site_symmetry_multiplicity
 _atom_site_fract_x
 _atom_site_fract_y
 _atom_site_fract_z
 _atom_site_occupancy
  Te  Te0  2  0.00000000  0.00000000  0.50000000  1
  Pb  Pb1  4  0.03144418  0.50000000  0.69894926  1
  Pb  Pb2  4  0.21178739  0.00000000  0.63160978  1
  Pb  Pb3  2  0.00000000  0.00000000  0.00000000  1
  Cl  Cl4  4  0.08077021  0.00000000  0.86598548  1
  Cl  Cl5  4  0.10289048  0.50000000  0.15200398  1
  Cl  Cl6  4  0.16403523  0.50000000  0.46268155  1
  Cl  Cl7  4  0.20577271  0.50000000  0.77061071  1
