# generated using pymatgen
data_Tl4IrO6
_symmetry_space_group_name_H-M   'P 1'
_cell_length_a   5.99370468
_cell_length_b   5.96918797
_cell_length_c   6.46257877
_cell_angle_alpha   82.40145887
_cell_angle_beta   75.18618813
_cell_angle_gamma   59.81188171
_symmetry_Int_Tables_number   1
_chemical_formula_structural   Tl4IrO6
_chemical_formula_sum   'Tl4 Ir1 O6'
_cell_volume   193.21284583
_cell_formula_units_Z   1
loop_
 _symmetry_equiv_pos_site_id
 _symmetry_equiv_pos_as_xyz
  1  'x, y, z'
loop_
 _atom_site_type_symbol
 _atom_site_label
 _atom_site_symmetry_multiplicity
 _atom_site_fract_x
 _atom_site_fract_y
 _atom_site_fract_z
 _atom_site_occupancy
  Tl  Tl0  1  0.83732510  0.19195201  0.03826926  1
  Tl  Tl1  1  0.01315808  0.84253198  0.53788120  1
  Tl  Tl2  1  0.51317668  0.84194958  0.03823167  1
  O  O3  1  0.72922122  0.79177439  0.37045833  1
  O  O4  1  0.88667953  0.51511472  0.73308218  1
  Tl  Tl5  1  0.33979034  0.18957900  0.53795749  1
  Ir  Ir6  1  0.67690843  0.51561362  0.53793108  1
  O  O7  1  0.34813112  0.79176527  0.70385331  1
  O  O8  1  0.46709916  0.51580524  0.34297979  1
  O  O9  1  0.00456819  0.23976190  0.37085557  1
  O  O10  1  0.62519097  0.23934820  0.70487744  1
