# generated using pymatgen
data_Tl4IrO6
_symmetry_space_group_name_H-M   C2/m
_cell_length_a   5.99370468
_cell_length_b   10.31928690
_cell_length_c   6.46257877
_cell_angle_alpha   90.00000000
_cell_angle_beta   104.81381187
_cell_angle_gamma   90.00000000
_symmetry_Int_Tables_number   12
_chemical_formula_structural   Tl4IrO6
_chemical_formula_sum   'Tl8 Ir2 O12'
_cell_volume   386.42956934
_cell_formula_units_Z   2
loop_
 _symmetry_equiv_pos_site_id
 _symmetry_equiv_pos_as_xyz
  1  'x, y, z'
  2  '-x, -y, -z'
  3  '-x, y, -z'
  4  'x, -y, z'
  5  'x+1/2, y+1/2, z'
  6  '-x+1/2, -y+1/2, -z'
  7  '-x+1/2, y+1/2, -z'
  8  'x+1/2, -y+1/2, z'
loop_
 _atom_site_type_symbol
 _atom_site_label
 _atom_site_symmetry_multiplicity
 _atom_site_fract_x
 _atom_site_fract_y
 _atom_site_fract_z
 _atom_site_occupancy
  Tl  Tl0  4  0.00000000  0.16183081  0.00000000  1
  Tl  Tl1  4  0.00000000  0.33654082  0.50000000  1
  Ir  Ir2  2  0.00000000  0.00000000  0.50000000  1
  O  O3  8  0.19039318  0.13808039  0.66747275  1
  O  O4  4  0.20952165  0.00000000  0.30484891  1
