# generated using pymatgen
data_V3Cl8
_symmetry_space_group_name_H-M   'P 1'
_cell_length_a   6.09389803
_cell_length_b   7.11788596
_cell_length_c   7.55732918
_cell_angle_alpha   117.90727515
_cell_angle_beta   105.17318487
_cell_angle_gamma   90.05969344
_symmetry_Int_Tables_number   1
_chemical_formula_structural   V3Cl8
_chemical_formula_sum   'V3 Cl8'
_cell_volume   276.63526416
_cell_formula_units_Z   1
loop_
 _symmetry_equiv_pos_site_id
 _symmetry_equiv_pos_as_xyz
  1  'x, y, z'
loop_
 _atom_site_type_symbol
 _atom_site_label
 _atom_site_symmetry_multiplicity
 _atom_site_fract_x
 _atom_site_fract_y
 _atom_site_fract_z
 _atom_site_occupancy
  V  V0  1  0.33052626  0.95929390  0.22942388  1
  Cl  Cl1  1  0.07079688  0.06895801  0.44935137  1
  V  V2  1  0.83065706  0.70234764  0.22905062  1
  Cl  Cl3  1  0.08370934  0.09206422  0.02158511  1
  Cl  Cl4  1  0.57764167  0.82699293  0.43812597  1
  Cl  Cl5  1  0.08416910  0.61855519  0.02156047  1
  Cl  Cl6  1  0.59037310  0.84969854  0.00975658  1
  Cl  Cl7  1  0.04667942  0.56736159  0.44567859  1
  Cl  Cl8  1  0.61431396  0.35132095  0.01330656  1
  V  V9  1  0.83026361  0.21675432  0.22892843  1
  Cl  Cl10  1  0.57697320  0.29984105  0.43739018  1
