# generated using pymatgen
data_V3Cl8
_symmetry_space_group_name_H-M   C2/m
_cell_length_a   13.35698854
_cell_length_b   7.11788596
_cell_length_c   6.09389803
_cell_angle_alpha   90.00000000
_cell_angle_beta   107.26161735
_cell_angle_gamma   90.00000000
_symmetry_Int_Tables_number   12
_chemical_formula_structural   V3Cl8
_chemical_formula_sum   'V6 Cl16'
_cell_volume   553.27347627
_cell_formula_units_Z   2
loop_
 _symmetry_equiv_pos_site_id
 _symmetry_equiv_pos_as_xyz
  1  'x, y, z'
  2  '-x, -y, -z'
  3  '-x, y, -z'
  4  'x, -y, z'
  5  'x+1/2, y+1/2, z'
  6  '-x+1/2, -y+1/2, -z'
  7  '-x+1/2, y+1/2, -z'
  8  'x+1/2, -y+1/2, z'
loop_
 _atom_site_type_symbol
 _atom_site_label
 _atom_site_symmetry_multiplicity
 _atom_site_fract_x
 _atom_site_fract_y
 _atom_site_fract_z
 _atom_site_occupancy
  V  V0  4  0.00000000  0.24324036  0.00000000  1
  V  V1  2  0.00000000  0.50000000  0.50000000  1
  Cl  Cl2  8  0.10391939  0.26331030  0.74681693  1
  Cl  Cl3  4  0.10812736  0.00000000  0.21615316  1
  Cl  Cl4  4  0.10996374  0.50000000  0.24027062  1
