# generated using pymatgen
data_VBr5
_symmetry_space_group_name_H-M   P1
_cell_length_a   8.76560317
_cell_length_b   8.79540886
_cell_length_c   8.85459805
_cell_angle_alpha   73.64570861
_cell_angle_beta   74.16513004
_cell_angle_gamma   75.33254446
_symmetry_Int_Tables_number   1
_chemical_formula_structural   VBr5
_chemical_formula_sum   'V2 Br10'
_cell_volume   618.57523218
_cell_formula_units_Z   2
loop_
 _symmetry_equiv_pos_site_id
 _symmetry_equiv_pos_as_xyz
  1  'x, y, z'
loop_
 _atom_site_type_symbol
 _atom_site_label
 _atom_site_symmetry_multiplicity
 _atom_site_fract_x
 _atom_site_fract_y
 _atom_site_fract_z
 _atom_site_occupancy
  V  V0  1  0.69916970  0.14503950  0.12434167  1
  V  V1  1  0.99505422  0.44034541  0.42058432  1
  Br  Br2  1  0.06713200  0.16317242  0.49883491  1
  Br  Br3  1  0.07030296  0.51620537  0.14512008  1
  Br  Br4  1  0.12316191  0.56299895  0.53899175  1
  Br  Br5  1  0.28109199  0.72344646  0.70576394  1
  Br  Br6  1  0.40343463  0.85341804  0.83551621  1
  Br  Br7  1  0.57255393  0.01969963  0.00537294  1
  Br  Br8  1  0.62328935  0.06902349  0.40039927  1
  Br  Br9  1  0.62783077  0.42195731  0.04827130  1
  Br  Br10  1  0.72001779  0.51447818  0.49697047  1
  Br  Br11  1  0.97498259  0.07163531  0.04981190  1
