# generated using pymatgen
data_VBr5
_symmetry_space_group_name_H-M   'P 1'
_cell_length_a   8.79540886
_cell_length_b   8.76560317
_cell_length_c   8.85459805
_cell_angle_alpha   74.16513004
_cell_angle_beta   73.64570861
_cell_angle_gamma   75.33254446
_symmetry_Int_Tables_number   1
_chemical_formula_structural   VBr5
_chemical_formula_sum   'V2 Br10'
_cell_volume   618.57523218
_cell_formula_units_Z   2
loop_
 _symmetry_equiv_pos_site_id
 _symmetry_equiv_pos_as_xyz
  1  'x, y, z'
loop_
 _atom_site_type_symbol
 _atom_site_label
 _atom_site_symmetry_multiplicity
 _atom_site_fract_x
 _atom_site_fract_y
 _atom_site_fract_z
 _atom_site_occupancy
  Br  Br0  1  0.43700105  0.87683809  0.46100825  1
  Br  Br1  1  0.83682758  0.93286800  0.50116509  1
  V  V2  1  0.55965459  0.00494578  0.57941568  1
  Br  Br3  1  0.27655354  0.71890801  0.29423606  1
  V  V4  1  0.85496050  0.30083030  0.87565833  1
  Br  Br5  1  0.14658196  0.59656537  0.16448379  1
  Br  Br6  1  0.57804269  0.37216923  0.95172870  1
  Br  Br7  1  0.48379463  0.92969704  0.85487992  1
  Br  Br8  1  0.93097651  0.37671065  0.59960073  1
  Br  Br9  1  0.98030037  0.42744607  0.99462706  1
  Br  Br10  1  0.48552182  0.27998221  0.50302953  1
  Br  Br11  1  0.92836469  0.02501741  0.95018810  1
