# generated using pymatgen
data_AlFe8
_symmetry_space_group_name_H-M   'P 1'
_cell_length_a   2.86373391
_cell_length_b   6.19625879
_cell_length_c   6.39380011
_cell_angle_alpha   107.99507859
_cell_angle_beta   90.00000000
_cell_angle_gamma   103.36100135
_symmetry_Int_Tables_number   1
_chemical_formula_structural   AlFe8
_chemical_formula_sum   'Al1 Fe8'
_cell_volume   104.67101884
_cell_formula_units_Z   1
loop_
 _symmetry_equiv_pos_site_id
 _symmetry_equiv_pos_as_xyz
  1  'x, y, z'
loop_
 _atom_site_type_symbol
 _atom_site_label
 _atom_site_symmetry_multiplicity
 _atom_site_fract_x
 _atom_site_fract_y
 _atom_site_fract_z
 _atom_site_occupancy
  Al  Al0  1  0.94841341  0.89682682  0.26126062  1
  Fe  Fe1  1  0.39009787  0.78019574  0.91701953  1
  Fe  Fe2  1  0.83789214  0.67578427  0.58914302  1
  Fe  Fe3  1  0.16858541  0.33717081  0.59394745  1
  Fe  Fe4  1  0.72800326  0.45600651  0.92911925  1
  Fe  Fe5  1  0.50639617  0.01279234  0.60542874  1
  Fe  Fe6  1  0.27772369  0.55544738  0.26049646  1
  Fe  Fe7  1  0.05884227  0.11768454  0.93356326  1
  Fe  Fe8  1  0.61925435  0.23850869  0.26258269  1
