# generated using pymatgen
data_AlFe10
_symmetry_space_group_name_H-M   'P 1'
_cell_length_a   4.06863538
_cell_length_b   4.06863538
_cell_length_c   9.34261425
_cell_angle_alpha   90.00000000
_cell_angle_beta   102.57668421
_cell_angle_gamma   60.00000000
_symmetry_Int_Tables_number   1
_chemical_formula_structural   AlFe10
_chemical_formula_sum   'Al1 Fe10'
_cell_volume   129.63309921
_cell_formula_units_Z   1
loop_
 _symmetry_equiv_pos_site_id
 _symmetry_equiv_pos_as_xyz
  1  'x, y, z'
loop_
 _atom_site_type_symbol
 _atom_site_label
 _atom_site_symmetry_multiplicity
 _atom_site_fract_x
 _atom_site_fract_y
 _atom_site_fract_z
 _atom_site_occupancy
  Al  Al0  1  0.00000000  0.50000000  0.50000000  1
  Fe  Fe1  1  0.54772879  0.22613561  0.32159318  1
  Fe  Fe2  1  0.36425474  0.31787263  0.04638210  1
  Fe  Fe3  1  0.26789620  0.86605190  0.40184431  1
  Fe  Fe4  1  0.63574526  0.68212737  0.95361790  1
  Fe  Fe5  1  0.18558652  0.40720674  0.77837978  1
  Fe  Fe6  1  0.45227121  0.77386439  0.67840682  1
  Fe  Fe7  1  0.73210380  0.13394810  0.59815569  1
  Fe  Fe8  1  0.09043459  0.95478270  0.13565189  1
  Fe  Fe9  1  0.81441348  0.59279326  0.22162022  1
  Fe  Fe10  1  0.90956541  0.04521730  0.86434811  1
