# generated using pymatgen
data_AlFe11
_symmetry_space_group_name_H-M   C2/m
_cell_length_a   8.55150516
_cell_length_b   4.03696040
_cell_length_c   8.57716212
_cell_angle_alpha   90.00000000
_cell_angle_beta   109.31114465
_cell_angle_gamma   90.00000000
_symmetry_Int_Tables_number   12
_chemical_formula_structural   AlFe11
_chemical_formula_sum   'Al2 Fe22'
_cell_volume   279.44187687
_cell_formula_units_Z   2
loop_
 _symmetry_equiv_pos_site_id
 _symmetry_equiv_pos_as_xyz
  1  'x, y, z'
  2  '-x, -y, -z'
  3  '-x, y, -z'
  4  'x, -y, z'
  5  'x+1/2, y+1/2, z'
  6  '-x+1/2, -y+1/2, -z'
  7  '-x+1/2, y+1/2, -z'
  8  'x+1/2, -y+1/2, z'
loop_
 _atom_site_type_symbol
 _atom_site_label
 _atom_site_symmetry_multiplicity
 _atom_site_fract_x
 _atom_site_fract_y
 _atom_site_fract_z
 _atom_site_occupancy
  Al  Al0  2  0.00000000  0.00000000  0.00000000  1
  Fe  Fe1  4  0.00040388  0.00000000  0.66797114  1
  Fe  Fe2  4  0.00065839  0.50000000  0.82673763  1
  Fe  Fe3  4  0.24170706  0.50000000  0.08407633  1
  Fe  Fe4  4  0.24758443  0.50000000  0.74568399  1
  Fe  Fe5  4  0.24940676  0.00000000  0.58246997  1
  Fe  Fe6  2  0.00000000  0.50000000  0.50000000  1
