# generated using pymatgen
data_AlFe8
_symmetry_space_group_name_H-M   C2/m
_cell_length_a   12.05709418
_cell_length_b   2.86373391
_cell_length_c   6.39380011
_cell_angle_alpha   90.00000000
_cell_angle_beta   108.51360057
_cell_angle_gamma   90.00000000
_symmetry_Int_Tables_number   12
_chemical_formula_structural   AlFe8
_chemical_formula_sum   'Al2 Fe16'
_cell_volume   209.34203769
_cell_formula_units_Z   2
loop_
 _symmetry_equiv_pos_site_id
 _symmetry_equiv_pos_as_xyz
  1  'x, y, z'
  2  '-x, -y, -z'
  3  '-x, y, -z'
  4  'x, -y, z'
  5  'x+1/2, y+1/2, z'
  6  '-x+1/2, -y+1/2, -z'
  7  '-x+1/2, y+1/2, -z'
  8  'x+1/2, -y+1/2, z'
loop_
 _atom_site_type_symbol
 _atom_site_label
 _atom_site_symmetry_multiplicity
 _atom_site_fract_x
 _atom_site_fract_y
 _atom_site_fract_z
 _atom_site_occupancy
  Al  Al0  2  0.00000000  0.00000000  0.50000000  1
  Fe  Fe1  4  0.05831554  0.50000000  0.84424109  1
  Fe  Fe2  4  0.11052128  0.00000000  0.17211760  1
  Fe  Fe3  4  0.17068972  0.50000000  0.50076416  1
  Fe  Fe4  4  0.22017200  0.00000000  0.83268683  1
