# generated using pymatgen
data_AlFe11
_symmetry_space_group_name_H-M   'P 1'
_cell_length_a   4.03696040
_cell_length_b   4.72824729
_cell_length_c   8.46570228
_cell_angle_alpha   75.19496940
_cell_angle_beta   76.20608424
_cell_angle_gamma   64.72912818
_symmetry_Int_Tables_number   1
_chemical_formula_structural   AlFe11
_chemical_formula_sum   'Al1 Fe11'
_cell_volume   139.72093843
_cell_formula_units_Z   1
loop_
 _symmetry_equiv_pos_site_id
 _symmetry_equiv_pos_as_xyz
  1  'x, y, z'
loop_
 _atom_site_type_symbol
 _atom_site_label
 _atom_site_symmetry_multiplicity
 _atom_site_fract_x
 _atom_site_fract_y
 _atom_site_fract_z
 _atom_site_occupancy
  Al  Al0  1  0.00000000  0.00000000  0.00000000  1
  Fe  Fe1  1  0.24940676  0.08365645  0.41753003  1
  Fe  Fe2  1  0.99959612  0.33283663  0.66797114  1
  Fe  Fe3  1  0.50000000  0.50000000  0.50000000  1
  Fe  Fe4  1  0.00040388  0.66716337  0.33202886  1
  Fe  Fe5  1  0.74758443  0.25051512  0.25431601  1
  Fe  Fe6  1  0.50065839  0.82542084  0.17326237  1
  Fe  Fe7  1  0.74170706  0.60066221  0.91592367  1
  Fe  Fe8  1  0.25241557  0.74948488  0.74568399  1
  Fe  Fe9  1  0.75059324  0.91634355  0.58246997  1
  Fe  Fe10  1  0.49934161  0.17457916  0.82673763  1
  Fe  Fe11  1  0.25829294  0.39933779  0.08407633  1
