# generated using pymatgen
data_CaMn4(FeO4)3
_symmetry_space_group_name_H-M   'P 1'
_cell_length_a   6.48872194
_cell_length_b   6.48839830
_cell_length_c   6.49023350
_cell_angle_alpha   109.40129522
_cell_angle_beta   109.40786969
_cell_angle_gamma   109.39488906
_symmetry_Int_Tables_number   1
_chemical_formula_structural   CaMn4(FeO4)3
_chemical_formula_sum   'Ca1 Mn4 Fe3 O12'
_cell_volume   210.88878241
_cell_formula_units_Z   1
loop_
 _symmetry_equiv_pos_site_id
 _symmetry_equiv_pos_as_xyz
  1  'x, y, z'
loop_
 _atom_site_type_symbol
 _atom_site_label
 _atom_site_symmetry_multiplicity
 _atom_site_fract_x
 _atom_site_fract_y
 _atom_site_fract_z
 _atom_site_occupancy
  Ca  Ca0  1  0.45003991  0.42800605  0.84310205  1
  Mn  Mn1  1  0.95068122  0.43030430  0.34309094  1
  Mn  Mn2  1  0.45074571  0.92939858  0.34372896  1
  Mn  Mn3  1  0.94999260  0.92944733  0.34280513  1
  Mn  Mn4  1  0.95015313  0.92926936  0.84270005  1
  Fe  Fe5  1  0.45040394  0.92928785  0.84337903  1
  Fe  Fe6  1  0.95028516  0.42969563  0.84311285  1
  Fe  Fe7  1  0.45005754  0.42930691  0.34316071  1
  O  O8  1  0.26481850  0.94232447  0.52631023  1
  O  O9  1  0.76588494  0.61402260  0.32838239  1
  O  O10  1  0.31684234  0.11945575  0.02005994  1
  O  O11  1  0.13928697  0.60719361  0.70970040  1
  O  O12  1  0.96346389  0.11283634  0.65780183  1
  O  O13  1  0.93599620  0.74585316  0.02770097  1
  O  O14  1  0.13428712  0.24524200  0.35782061  1
  O  O15  1  0.76064275  0.25239603  0.97648730  1
  O  O16  1  0.27299999  0.56280666  0.15323383  1
  O  O17  1  0.58360320  0.74014665  0.66551204  1
  O  O18  1  0.62702630  0.29605614  0.53308010  1
  O  O19  1  0.63500536  0.91579197  0.15936350  1
