# generated using pymatgen
data_CdFe9O10
_symmetry_space_group_name_H-M   'P 1'
_cell_length_a   3.12310909
_cell_length_b   7.70087012
_cell_length_c   9.51361296
_cell_angle_alpha   106.95578115
_cell_angle_beta   90.06781903
_cell_angle_gamma   90.94448214
_symmetry_Int_Tables_number   1
_chemical_formula_structural   CdFe9O10
_chemical_formula_sum   'Cd1 Fe9 O10'
_cell_volume   218.82833230
_cell_formula_units_Z   1
loop_
 _symmetry_equiv_pos_site_id
 _symmetry_equiv_pos_as_xyz
  1  'x, y, z'
loop_
 _atom_site_type_symbol
 _atom_site_label
 _atom_site_symmetry_multiplicity
 _atom_site_fract_x
 _atom_site_fract_y
 _atom_site_fract_z
 _atom_site_occupancy
  Cd  Cd0  1  0.59194917  0.28665534  0.97031563  1
  Fe  Fe1  1  0.09661003  0.38864746  0.27489722  1
  Fe  Fe2  1  0.59584340  0.87976341  0.76238128  1
  Fe  Fe3  1  0.08874045  0.78531149  0.46949469  1
  Fe  Fe4  1  0.58296069  0.08376291  0.36842379  1
  Fe  Fe5  1  0.09661076  0.97907066  0.06942955  1
  Fe  Fe6  1  0.59851949  0.48214846  0.56602622  1
  Fe  Fe7  1  0.60063232  0.69331457  0.17453021  1
  Fe  Fe8  1  0.10398801  0.18404137  0.66330604  1
  Fe  Fe9  1  0.08523892  0.58787660  0.86555732  1
  O  O10  1  0.12730931  0.68239138  0.66310795  1
  O  O11  1  0.56466202  0.58296965  0.37195356  1
  O  O12  1  0.60497282  0.39058556  0.76360564  1
  O  O13  1  0.06867480  0.28430070  0.47038755  1
  O  O14  1  0.08172141  0.06776789  0.85522763  1
  O  O15  1  0.64279529  0.17914523  0.17653907  1
  O  O16  1  0.55591137  0.78676978  0.96841938  1
  O  O17  1  0.08666654  0.88512549  0.27279022  1
  O  O18  1  0.10808712  0.50588150  0.08081465  1
  O  O19  1  0.61261974  0.98487175  0.56182450  1
