# generated using pymatgen
data_Fe10Co
_symmetry_space_group_name_H-M   C2/m
_cell_length_a   13.34872925
_cell_length_b   4.02104576
_cell_length_c   4.71826073
_cell_angle_alpha   90.00000000
_cell_angle_beta   90.04336666
_cell_angle_gamma   90.00000000
_symmetry_Int_Tables_number   12
_chemical_formula_structural   Fe10Co
_chemical_formula_sum   'Fe20 Co2'
_cell_volume   253.25658768
_cell_formula_units_Z   2
loop_
 _symmetry_equiv_pos_site_id
 _symmetry_equiv_pos_as_xyz
  1  'x, y, z'
  2  '-x, -y, -z'
  3  '-x, y, -z'
  4  'x, -y, z'
  5  'x+1/2, y+1/2, z'
  6  '-x+1/2, -y+1/2, -z'
  7  '-x+1/2, y+1/2, -z'
  8  'x+1/2, -y+1/2, z'
loop_
 _atom_site_type_symbol
 _atom_site_label
 _atom_site_symmetry_multiplicity
 _atom_site_fract_x
 _atom_site_fract_y
 _atom_site_fract_z
 _atom_site_occupancy
  Fe  Fe0  4  0.04511065  0.50000000  0.27166223  1
  Fe  Fe1  4  0.09077418  0.00000000  0.54742874  1
  Fe  Fe2  4  0.13669363  0.50000000  0.81744846  1
  Fe  Fe3  4  0.18139050  0.00000000  0.09133229  1
  Fe  Fe4  4  0.22721755  0.50000000  0.36401999  1
  Co  Co5  2  0.00000000  0.00000000  0.00000000  1
