# generated using pymatgen
data_Fe10Co
_symmetry_space_group_name_H-M   'P 1'
_cell_length_a   4.02104576
_cell_length_b   4.71826073
_cell_length_c   6.97060581
_cell_angle_alpha   89.95847636
_cell_angle_beta   106.76390885
_cell_angle_gamma   90.00000000
_symmetry_Int_Tables_number   1
_chemical_formula_structural   Fe10Co
_chemical_formula_sum   'Fe10 Co1'
_cell_volume   126.62829384
_cell_formula_units_Z   1
loop_
 _symmetry_equiv_pos_site_id
 _symmetry_equiv_pos_as_xyz
  1  'x, y, z'
loop_
 _atom_site_type_symbol
 _atom_site_label
 _atom_site_symmetry_multiplicity
 _atom_site_fract_x
 _atom_site_fract_y
 _atom_site_fract_z
 _atom_site_occupancy
  Fe  Fe0  1  0.54511065  0.72833777  0.09022131  1
  Fe  Fe1  1  0.72721755  0.63598001  0.45443509  1
  Fe  Fe2  1  0.36330637  0.81744846  0.72661274  1
  Fe  Fe3  1  0.45488935  0.27166223  0.90977869  1
  Fe  Fe4  1  0.18139050  0.90866771  0.36278100  1
  Fe  Fe5  1  0.90922582  0.54742874  0.81845164  1
  Fe  Fe6  1  0.81860950  0.09133229  0.63721900  1
  Fe  Fe7  1  0.63669363  0.18255154  0.27338726  1
  Fe  Fe8  1  0.27278245  0.36401999  0.54556491  1
  Fe  Fe9  1  0.09077418  0.45257126  0.18154836  1
  Co  Co10  1  0.00000000  0.00000000  0.00000000  1
