# generated using pymatgen
data_Fe11Ni
_symmetry_space_group_name_H-M   'P 1'
_cell_length_a   2.84504084
_cell_length_b   5.67419469
_cell_length_c   8.99353500
_cell_angle_alpha   108.34619349
_cell_angle_beta   90.00000000
_cell_angle_gamma   90.00000000
_symmetry_Int_Tables_number   1
_chemical_formula_structural   Fe11Ni
_chemical_formula_sum   'Fe11 Ni1'
_cell_volume   137.80598939
_cell_formula_units_Z   1
loop_
 _symmetry_equiv_pos_site_id
 _symmetry_equiv_pos_as_xyz
  1  'x, y, z'
loop_
 _atom_site_type_symbol
 _atom_site_label
 _atom_site_symmetry_multiplicity
 _atom_site_fract_x
 _atom_site_fract_y
 _atom_site_fract_z
 _atom_site_occupancy
  Fe  Fe0  1  0.00000000  0.54660783  0.80252881  1
  Fe  Fe1  1  0.00000000  0.71388223  0.13721477  1
  Fe  Fe2  1  0.50000000  0.87850185  0.96974840  1
  Fe  Fe3  1  0.00000000  0.04719001  0.80390371  1
  Fe  Fe4  1  0.50000000  0.71430089  0.63736822  1
  Fe  Fe5  1  0.50000000  0.21408197  0.63729452  1
  Fe  Fe6  1  0.00000000  0.88136109  0.47172132  1
  Fe  Fe7  1  0.50000000  0.54933669  0.30440421  1
  Fe  Fe8  1  0.50000000  0.04604202  0.30452818  1
  Fe  Fe9  1  0.50000000  0.38161983  0.96973767  1
  Fe  Fe10  1  0.00000000  0.38100369  0.47045912  1
  Ni  Ni11  1  0.00000000  0.21382366  0.13725805  1
