# generated using pymatgen
data_Fe11Ni
_symmetry_space_group_name_H-M   Cmmm
_cell_length_a   5.67419469
_cell_length_b   17.07282822
_cell_length_c   2.84504084
_cell_angle_alpha   90.00000000
_cell_angle_beta   90.00000000
_cell_angle_gamma   90.00000000
_symmetry_Int_Tables_number   65
_chemical_formula_structural   Fe11Ni
_chemical_formula_sum   'Fe22 Ni2'
_cell_volume   275.61205413
_cell_formula_units_Z   2
loop_
 _symmetry_equiv_pos_site_id
 _symmetry_equiv_pos_as_xyz
  1  'x, y, z'
  2  '-x, -y, -z'
  3  '-x, -y, z'
  4  'x, y, -z'
  5  'x, -y, -z'
  6  '-x, y, z'
  7  '-x, y, -z'
  8  'x, -y, z'
  9  'x+1/2, y+1/2, z'
  10  '-x+1/2, -y+1/2, -z'
  11  '-x+1/2, -y+1/2, z'
  12  'x+1/2, y+1/2, -z'
  13  'x+1/2, -y+1/2, -z'
  14  '-x+1/2, y+1/2, z'
  15  '-x+1/2, y+1/2, -z'
  16  'x+1/2, -y+1/2, z'
loop_
 _atom_site_type_symbol
 _atom_site_label
 _atom_site_symmetry_multiplicity
 _atom_site_fract_x
 _atom_site_fract_y
 _atom_site_fract_z
 _atom_site_occupancy
  Fe  Fe0  8  0.24843301  0.41624518  0.50000000  1
  Fe  Fe1  4  0.00000000  0.16667717  0.00000000  1
  Fe  Fe2  4  0.00000000  0.33263538  0.00000000  1
  Fe  Fe3  4  0.25000000  0.25000000  0.50000000  1
  Fe  Fe4  2  0.00000000  0.50000000  0.00000000  1
  Ni  Ni5  2  0.00000000  0.00000000  0.00000000  1
