# generated using pymatgen
data_Fe14Co
_symmetry_space_group_name_H-M   C2/m
_cell_length_a   18.23293684
_cell_length_b   4.02288436
_cell_length_c   4.72617114
_cell_angle_alpha   90.00000000
_cell_angle_beta   92.76898721
_cell_angle_gamma   90.00000000
_symmetry_Int_Tables_number   12
_chemical_formula_structural   Fe14Co
_chemical_formula_sum   'Fe28 Co2'
_cell_volume   346.25516053
_cell_formula_units_Z   2
loop_
 _symmetry_equiv_pos_site_id
 _symmetry_equiv_pos_as_xyz
  1  'x, y, z'
  2  '-x, -y, -z'
  3  '-x, y, -z'
  4  'x, -y, z'
  5  'x+1/2, y+1/2, z'
  6  '-x+1/2, -y+1/2, -z'
  7  '-x+1/2, y+1/2, -z'
  8  'x+1/2, -y+1/2, z'
loop_
 _atom_site_type_symbol
 _atom_site_label
 _atom_site_symmetry_multiplicity
 _atom_site_fract_x
 _atom_site_fract_y
 _atom_site_fract_z
 _atom_site_occupancy
  Fe  Fe0  4  0.03334910  0.00000000  0.23444648  1
  Fe  Fe1  4  0.06671854  0.50000000  0.96477382  1
  Fe  Fe2  4  0.10033411  0.00000000  0.70090685  1
  Fe  Fe3  4  0.13310510  0.50000000  0.43335439  1
  Fe  Fe4  4  0.16685472  0.00000000  0.16643343  1
  Fe  Fe5  4  0.19995692  0.50000000  0.90000515  1
  Fe  Fe6  4  0.23325576  0.00000000  0.63360932  1
  Co  Co7  2  0.00000000  0.50000000  0.50000000  1
