# generated using pymatgen
data_Fe14Co
_symmetry_space_group_name_H-M   'P 1'
_cell_length_a   4.02288436
_cell_length_b   4.72617114
_cell_length_c   9.33573222
_cell_angle_alpha   92.70390445
_cell_angle_beta   102.44229789
_cell_angle_gamma   90.00000000
_symmetry_Int_Tables_number   1
_chemical_formula_structural   Fe14Co
_chemical_formula_sum   'Fe14 Co1'
_cell_volume   173.12758027
_cell_formula_units_Z   1
loop_
 _symmetry_equiv_pos_site_id
 _symmetry_equiv_pos_as_xyz
  1  'x, y, z'
loop_
 _atom_site_type_symbol
 _atom_site_label
 _atom_site_symmetry_multiplicity
 _atom_site_fract_x
 _atom_site_fract_y
 _atom_site_fract_z
 _atom_site_occupancy
  Fe  Fe0  1  0.76674424  0.36639068  0.53348848  1
  Fe  Fe1  1  0.56671854  0.96477382  0.13343708  1
  Fe  Fe2  1  0.16685472  0.16643343  0.33370944  1
  Fe  Fe3  1  0.30004308  0.09999485  0.60008617  1
  Fe  Fe4  1  0.10033411  0.70090685  0.20066822  1
  Fe  Fe5  1  0.69995692  0.90000515  0.39991383  1
  Fe  Fe6  1  0.36689490  0.56664561  0.73378981  1
  Fe  Fe7  1  0.63310510  0.43335439  0.26621019  1
  Fe  Fe8  1  0.43328146  0.03522618  0.86656292  1
  Fe  Fe9  1  0.89966589  0.29909315  0.79933178  1
  Fe  Fe10  1  0.96665090  0.76555352  0.93330181  1
  Fe  Fe11  1  0.03334910  0.23444648  0.06669819  1
  Fe  Fe12  1  0.83314528  0.83356657  0.66629056  1
  Fe  Fe13  1  0.23325576  0.63360932  0.46651152  1
  Co  Co14  1  0.50000000  0.50000000  0.00000000  1
