# generated using pymatgen
data_Fe15Ni
_symmetry_space_group_name_H-M   P-1
_cell_length_a   4.73232722
_cell_length_b   4.73877526
_cell_length_c   8.45518582
_cell_angle_alpha   81.21831601
_cell_angle_beta   87.12399952
_cell_angle_gamma   84.74362799
_symmetry_Int_Tables_number   2
_chemical_formula_structural   Fe15Ni
_chemical_formula_sum   'Fe15 Ni1'
_cell_volume   186.47423581
_cell_formula_units_Z   1
loop_
 _symmetry_equiv_pos_site_id
 _symmetry_equiv_pos_as_xyz
  1  'x, y, z'
  2  '-x, -y, -z'
loop_
 _atom_site_type_symbol
 _atom_site_label
 _atom_site_symmetry_multiplicity
 _atom_site_fract_x
 _atom_site_fract_y
 _atom_site_fract_z
 _atom_site_occupancy
  Fe  Fe0  2  0.06016225  0.74849788  0.06371707  1
  Fe  Fe1  2  0.12610793  0.50007949  0.62514419  1
  Fe  Fe2  2  0.18539861  0.25137452  0.18780606  1
  Fe  Fe3  2  0.24966992  0.00138768  0.74823731  1
  Fe  Fe4  2  0.31267700  0.74891662  0.31168858  1
  Fe  Fe5  2  0.37482404  0.50326613  0.87439180  1
  Fe  Fe6  2  0.43694924  0.25058670  0.43753394  1
  Fe  Fe7  1  0.00000000  0.00000000  0.50000000  1
  Ni  Ni8  1  0.50000000  0.00000000  0.00000000  1
