# generated using pymatgen
data_Fe17Co
_symmetry_space_group_name_H-M   'P 1'
_cell_length_a   6.19032437
_cell_length_b   6.19225373
_cell_length_c   6.19147290
_cell_angle_alpha   61.67562041
_cell_angle_beta   86.94279907
_cell_angle_gamma   80.89963746
_symmetry_Int_Tables_number   1
_chemical_formula_structural   Fe17Co
_chemical_formula_sum   'Fe17 Co1'
_cell_volume   206.22343026
_cell_formula_units_Z   1
loop_
 _symmetry_equiv_pos_site_id
 _symmetry_equiv_pos_as_xyz
  1  'x, y, z'
loop_
 _atom_site_type_symbol
 _atom_site_label
 _atom_site_symmetry_multiplicity
 _atom_site_fract_x
 _atom_site_fract_y
 _atom_site_fract_z
 _atom_site_occupancy
  Fe  Fe0  1  0.77796391  0.16726790  0.72227392  1
  Fe  Fe1  1  0.55542422  0.83334876  0.94360157  1
  Fe  Fe2  1  0.33343717  0.50050346  0.16656090  1
  Fe  Fe3  1  0.61120487  0.66719925  0.38906080  1
  Fe  Fe4  1  0.05530511  0.33335303  0.94435067  1
  Fe  Fe5  1  0.88816933  0.83339344  0.61079135  1
  Fe  Fe6  1  0.44457578  0.16665124  0.05639843  1
  Fe  Fe7  1  0.94469489  0.66664697  0.05564933  1
  Fe  Fe8  1  0.00000000  0.50000000  0.50000000  1
  Fe  Fe9  1  0.83391987  0.00025907  0.16606667  1
  Fe  Fe10  1  0.22203609  0.83273210  0.27772608  1
  Fe  Fe11  1  0.11183067  0.16660656  0.38920865  1
  Fe  Fe12  1  0.16608013  0.99974093  0.83393333  1
  Fe  Fe13  1  0.66656283  0.49949654  0.83343910  1
  Fe  Fe14  1  0.38879513  0.33280075  0.61093920  1
  Fe  Fe15  1  0.72169570  0.33277571  0.27770958  1
  Fe  Fe16  1  0.27830430  0.66722429  0.72229042  1
  Co  Co17  1  0.50000000  0.00000000  0.50000000  1
