# generated using pymatgen
data_Fe5CoNi
_symmetry_space_group_name_H-M   I4mm
_cell_length_a   2.86422629
_cell_length_b   2.86422629
_cell_length_c   20.05468769
_cell_angle_alpha   90.00000000
_cell_angle_beta   90.00000000
_cell_angle_gamma   90.00000000
_symmetry_Int_Tables_number   107
_chemical_formula_structural   Fe5CoNi
_chemical_formula_sum   'Fe10 Co2 Ni2'
_cell_volume   164.52449122
_cell_formula_units_Z   2
loop_
 _symmetry_equiv_pos_site_id
 _symmetry_equiv_pos_as_xyz
  1  'x, y, z'
  2  '-y, x, z'
  3  '-x, -y, z'
  4  'y, -x, z'
  5  '-x, y, z'
  6  'y, x, z'
  7  'x, -y, z'
  8  '-y, -x, z'
  9  'x+1/2, y+1/2, z+1/2'
  10  '-y+1/2, x+1/2, z+1/2'
  11  '-x+1/2, -y+1/2, z+1/2'
  12  'y+1/2, -x+1/2, z+1/2'
  13  '-x+1/2, y+1/2, z+1/2'
  14  'y+1/2, x+1/2, z+1/2'
  15  'x+1/2, -y+1/2, z+1/2'
  16  '-y+1/2, -x+1/2, z+1/2'
loop_
 _atom_site_type_symbol
 _atom_site_label
 _atom_site_symmetry_multiplicity
 _atom_site_fract_x
 _atom_site_fract_y
 _atom_site_fract_z
 _atom_site_occupancy
  Fe  Fe0  2  0.00000000  0.00000000  0.26961440  1
  Fe  Fe1  2  0.00000000  0.00000000  0.55587107  1
  Fe  Fe2  2  0.00000000  0.00000000  0.69739726  1
  Fe  Fe3  2  0.00000000  0.00000000  0.84066237  1
  Fe  Fe4  2  0.00000000  0.00000000  0.98431912  1
  Co  Co5  2  0.00000000  0.00000000  0.12668177  1
  Ni  Ni6  2  0.00000000  0.00000000  0.41265627  1
