# generated using pymatgen
data_Fe5O6
_symmetry_space_group_name_H-M   P-1
_cell_length_a   5.25261464
_cell_length_b   5.26527805
_cell_length_c   5.30213219
_cell_angle_alpha   81.71886198
_cell_angle_beta   60.49422685
_cell_angle_gamma   71.76522746
_symmetry_Int_Tables_number   2
_chemical_formula_structural   Fe5O6
_chemical_formula_sum   'Fe5 O6'
_cell_volume   121.20239234
_cell_formula_units_Z   1
loop_
 _symmetry_equiv_pos_site_id
 _symmetry_equiv_pos_as_xyz
  1  'x, y, z'
  2  '-x, -y, -z'
loop_
 _atom_site_type_symbol
 _atom_site_label
 _atom_site_symmetry_multiplicity
 _atom_site_fract_x
 _atom_site_fract_y
 _atom_site_fract_z
 _atom_site_occupancy
  Fe  Fe0  2  0.15678521  0.50432322  0.67591801  1
  Fe  Fe1  2  0.34249739  0.99897902  0.32186469  1
  Fe  Fe2  1  0.00000000  0.00000000  0.00000000  1
  O  O3  2  0.05384464  0.77711704  0.35579778  1
  O  O4  2  0.26243953  0.22676214  0.00531505  1
  O  O5  2  0.42518132  0.76742398  0.62723988  1
