# generated using pymatgen
data_Fe5O6
_symmetry_space_group_name_H-M   'P 1'
_cell_length_a   5.25261464
_cell_length_b   5.26527805
_cell_length_c   5.31691951
_cell_angle_alpha   80.47388904
_cell_angle_beta   60.21385389
_cell_angle_gamma   71.76522746
_symmetry_Int_Tables_number   1
_chemical_formula_structural   Fe5O6
_chemical_formula_sum   'Fe5 O6'
_cell_volume   121.20239234
_cell_formula_units_Z   1
loop_
 _symmetry_equiv_pos_site_id
 _symmetry_equiv_pos_as_xyz
  1  'x, y, z'
loop_
 _atom_site_type_symbol
 _atom_site_label
 _atom_site_symmetry_multiplicity
 _atom_site_fract_x
 _atom_site_fract_y
 _atom_site_fract_z
 _atom_site_occupancy
  Fe  Fe0  1  0.33563792  0.00102098  0.32186469  1
  Fe  Fe1  1  0.83270323  0.50432322  0.32408199  1
  Fe  Fe2  1  0.66436208  0.99897902  0.67813531  1
  Fe  Fe3  1  0.00000000  0.00000000  0.00000000  1
  Fe  Fe4  1  0.16729677  0.49567678  0.67591801  1
  O  O5  1  0.94757880  0.23257602  0.62723988  1
  O  O6  1  0.26775459  0.22676214  0.99468495  1
  O  O7  1  0.59035758  0.22288296  0.35579778  1
  O  O8  1  0.40964242  0.77711704  0.64420222  1
  O  O9  1  0.73224541  0.77323786  0.00531505  1
  O  O10  1  0.05242120  0.76742398  0.37276012  1
