# generated using pymatgen
data_Fe6CoN
_symmetry_space_group_name_H-M   I4mm
_cell_length_a   2.84766230
_cell_length_b   2.84766230
_cell_length_c   21.50967782
_cell_angle_alpha   90.00000000
_cell_angle_beta   90.00000000
_cell_angle_gamma   90.00000000
_symmetry_Int_Tables_number   107
_chemical_formula_structural   Fe6CoN
_chemical_formula_sum   'Fe12 Co2 N2'
_cell_volume   174.42586203
_cell_formula_units_Z   2
loop_
 _symmetry_equiv_pos_site_id
 _symmetry_equiv_pos_as_xyz
  1  'x, y, z'
  2  '-y, x, z'
  3  '-x, -y, z'
  4  'y, -x, z'
  5  '-x, y, z'
  6  'y, x, z'
  7  'x, -y, z'
  8  '-y, -x, z'
  9  'x+1/2, y+1/2, z+1/2'
  10  '-y+1/2, x+1/2, z+1/2'
  11  '-x+1/2, -y+1/2, z+1/2'
  12  'y+1/2, -x+1/2, z+1/2'
  13  '-x+1/2, y+1/2, z+1/2'
  14  'y+1/2, x+1/2, z+1/2'
  15  'x+1/2, -y+1/2, z+1/2'
  16  '-y+1/2, -x+1/2, z+1/2'
loop_
 _atom_site_type_symbol
 _atom_site_label
 _atom_site_symmetry_multiplicity
 _atom_site_fract_x
 _atom_site_fract_y
 _atom_site_fract_z
 _atom_site_occupancy
  Fe  Fe0  2  0.00000000  0.00000000  0.05578815  1
  Fe  Fe1  2  0.00000000  0.00000000  0.20545193  1
  Fe  Fe2  2  0.00000000  0.00000000  0.33702414  1
  Fe  Fe3  2  0.00000000  0.00000000  0.46984350  1
  Fe  Fe4  2  0.00000000  0.00000000  0.64125962  1
  Fe  Fe5  2  0.00000000  0.00000000  0.90527648  1
  Co  Co6  2  0.00000000  0.00000000  0.77228457  1
  N  N7  2  0.00000000  0.00000000  0.55561459  1
