# generated using pymatgen
data_Fe6CoN
_symmetry_space_group_name_H-M   'P 1'
_cell_length_a   2.84766230
_cell_length_b   2.84766230
_cell_length_c   10.94159757
_cell_angle_alpha   97.47471336
_cell_angle_beta   97.47471336
_cell_angle_gamma   89.99988350
_symmetry_Int_Tables_number   1
_chemical_formula_structural   Fe6CoN
_chemical_formula_sum   'Fe6 Co1 N1'
_cell_volume   87.21293086
_cell_formula_units_Z   1
loop_
 _symmetry_equiv_pos_site_id
 _symmetry_equiv_pos_as_xyz
  1  'x, y, z'
loop_
 _atom_site_type_symbol
 _atom_site_label
 _atom_site_symmetry_multiplicity
 _atom_site_fract_x
 _atom_site_fract_y
 _atom_site_fract_z
 _atom_site_occupancy
  Fe  Fe0  1  0.33714592  0.33714592  0.81263037  1
  Fe  Fe1  1  0.20536944  0.20536944  0.54948594  1
  Fe  Fe2  1  0.64151303  0.64151303  0.42110133  1
  Fe  Fe3  1  0.05675969  0.05675969  0.25015839  1
  Fe  Fe4  1  0.47068096  0.47068096  0.07826909  1
  Fe  Fe5  1  0.90590741  0.90590741  0.94913505  1
  Co  Co6  1  0.77228457  0.77228457  0.68315122  1
  N  N7  1  0.55677885  0.55677885  0.24981127  1
