# generated using pymatgen
data_Fe7O8
_symmetry_space_group_name_H-M   Pmmm
_cell_length_a   3.09164010
_cell_length_b   6.45759041
_cell_length_c   8.41002439
_cell_angle_alpha   90.00000000
_cell_angle_beta   90.00000000
_cell_angle_gamma   90.00000000
_symmetry_Int_Tables_number   47
_chemical_formula_structural   Fe7O8
_chemical_formula_sum   'Fe7 O8'
_cell_volume   167.90231427
_cell_formula_units_Z   1
loop_
 _symmetry_equiv_pos_site_id
 _symmetry_equiv_pos_as_xyz
  1  'x, y, z'
  2  '-x, -y, -z'
  3  '-x, -y, z'
  4  'x, y, -z'
  5  'x, -y, -z'
  6  '-x, y, z'
  7  '-x, y, -z'
  8  'x, -y, z'
loop_
 _atom_site_type_symbol
 _atom_site_label
 _atom_site_symmetry_multiplicity
 _atom_site_fract_x
 _atom_site_fract_y
 _atom_site_fract_z
 _atom_site_occupancy
  Fe  Fe0  4  0.50000000  0.23288218  0.23621740  1
  Fe  Fe1  1  0.00000000  0.00000000  0.50000000  1
  Fe  Fe2  1  0.00000000  0.50000000  0.00000000  1
  Fe  Fe3  1  0.00000000  0.50000000  0.50000000  1
  O  O4  2  0.00000000  0.00000000  0.26738340  1
  O  O5  2  0.00000000  0.50000000  0.25451232  1
  O  O6  2  0.50000000  0.27976659  0.50000000  1
  O  O7  2  0.50000000  0.29413073  0.00000000  1
