# generated using pymatgen
data_Fe7O8
_symmetry_space_group_name_H-M   'P 1'
_cell_length_a   3.09164010
_cell_length_b   6.45759041
_cell_length_c   8.41002439
_cell_angle_alpha   90.01977201
_cell_angle_beta   90.00000000
_cell_angle_gamma   90.00000000
_symmetry_Int_Tables_number   1
_chemical_formula_structural   Fe7O8
_chemical_formula_sum   'Fe7 O8'
_cell_volume   167.90230427
_cell_formula_units_Z   1
loop_
 _symmetry_equiv_pos_site_id
 _symmetry_equiv_pos_as_xyz
  1  'x, y, z'
loop_
 _atom_site_type_symbol
 _atom_site_label
 _atom_site_symmetry_multiplicity
 _atom_site_fract_x
 _atom_site_fract_y
 _atom_site_fract_z
 _atom_site_occupancy
  Fe  Fe0  1  0.50000000  0.92509141  0.83890062  1
  Fe  Fe1  1  0.00000000  0.15794145  0.57530860  1
  Fe  Fe2  1  0.50000000  0.92505410  0.31216469  1
  Fe  Fe3  1  0.50000000  0.39085576  0.83862241  1
  Fe  Fe4  1  0.00000000  0.65757492  0.57516325  1
  Fe  Fe5  1  0.50000000  0.39044084  0.31133542  1
  Fe  Fe6  1  0.00000000  0.65806703  0.07546313  1
  O  O7  1  0.50000000  0.87820699  0.57478121  1
  O  O8  1  0.00000000  0.15804690  0.34250142  1
  O  O9  1  0.00000000  0.65830054  0.82060570  1
  O  O10  1  0.00000000  0.15785098  0.80801551  1
  O  O11  1  0.50000000  0.86384285  0.07565421  1
  O  O12  1  0.00000000  0.65698654  0.32961726  1
  O  O13  1  0.50000000  0.43727630  0.57532529  1
  O  O14  1  0.50000000  0.45227096  0.07496547  1
