# generated using pymatgen
data_Fe8Au
_symmetry_space_group_name_H-M   C2/m
_cell_length_a   8.75094279
_cell_length_b   4.11732000
_cell_length_c   7.61732314
_cell_angle_alpha   90.00000000
_cell_angle_beta   124.33400420
_cell_angle_gamma   90.00000000
_symmetry_Int_Tables_number   12
_chemical_formula_structural   Fe8Au
_chemical_formula_sum   'Fe16 Au2'
_cell_volume   226.63534216
_cell_formula_units_Z   2
loop_
 _symmetry_equiv_pos_site_id
 _symmetry_equiv_pos_as_xyz
  1  'x, y, z'
  2  '-x, -y, -z'
  3  '-x, y, -z'
  4  'x, -y, z'
  5  'x+1/2, y+1/2, z'
  6  '-x+1/2, -y+1/2, -z'
  7  '-x+1/2, y+1/2, -z'
  8  'x+1/2, -y+1/2, z'
loop_
 _atom_site_type_symbol
 _atom_site_label
 _atom_site_symmetry_multiplicity
 _atom_site_fract_x
 _atom_site_fract_y
 _atom_site_fract_z
 _atom_site_occupancy
  Fe  Fe0  4  0.00249000  0.00000000  0.84281000  1.0
  Fe  Fe1  4  0.15529000  0.50000000  0.38499000  1.0
  Fe  Fe2  4  0.16353500  0.50000000  0.05457000  1.0
  Fe  Fe3  4  0.18489500  0.50000000  0.74206000  1.0
  Au  Au4  2  0.00000000  0.00000000  0.50000000  1.0
