# generated using pymatgen
data_Fe8Au
_symmetry_space_group_name_H-M   'P 1'
_cell_length_a   4.11732000
_cell_length_b   4.83558000
_cell_length_c   6.61890000
_cell_angle_alpha   81.76470000
_cell_angle_beta   71.87880000
_cell_angle_gamma   64.80300000
_symmetry_Int_Tables_number   1
_chemical_formula_structural   Fe8Au
_chemical_formula_sum   'Fe8 Au1'
_cell_volume   113.31767108
_cell_formula_units_Z   1
loop_
 _symmetry_equiv_pos_site_id
 _symmetry_equiv_pos_as_xyz
  1  'x, y, z'
loop_
 _atom_site_type_symbol
 _atom_site_label
 _atom_site_symmetry_multiplicity
 _atom_site_fract_x
 _atom_site_fract_y
 _atom_site_fract_z
 _atom_site_occupancy
  Fe  Fe1  1  0.00249000  0.83783000  0.15719000  1.0
  Fe  Fe2  1  0.34471000  0.92559000  0.38499000  1.0
  Fe  Fe3  1  0.33647000  0.27250000  0.05457000  1.0
  Fe  Fe4  1  0.99751000  0.16217000  0.84281000  1.0
  Fe  Fe5  1  0.66353000  0.72750000  0.94543000  1.0
  Fe  Fe6  1  0.65529000  0.07441000  0.61501000  1.0
  Fe  Fe7  1  0.31511000  0.62773000  0.74206000  1.0
  Fe  Fe8  1  0.68489000  0.37227000  0.25794000  1.0
  Au  Au1  1  0.00000000  0.50000000  0.50000000  1.0
