# generated using pymatgen
data_Fe8CoAu
_symmetry_space_group_name_H-M   P4mm
_cell_length_a   2.84876911
_cell_length_b   2.84876911
_cell_length_c   15.32029318
_cell_angle_alpha   90.00000000
_cell_angle_beta   90.00000000
_cell_angle_gamma   90.00000000
_symmetry_Int_Tables_number   99
_chemical_formula_structural   Fe8CoAu
_chemical_formula_sum   'Fe8 Co1 Au1'
_cell_volume   124.33161606
_cell_formula_units_Z   1
loop_
 _symmetry_equiv_pos_site_id
 _symmetry_equiv_pos_as_xyz
  1  'x, y, z'
  2  '-y, x, z'
  3  '-x, -y, z'
  4  'y, -x, z'
  5  '-x, y, z'
  6  'y, x, z'
  7  'x, -y, z'
  8  '-y, -x, z'
loop_
 _atom_site_type_symbol
 _atom_site_label
 _atom_site_symmetry_multiplicity
 _atom_site_fract_x
 _atom_site_fract_y
 _atom_site_fract_z
 _atom_site_occupancy
  Fe  Fe0  1  0.00000000  0.00000000  0.04844680  1
  Fe  Fe1  1  0.00000000  0.00000000  0.23600796  1
  Fe  Fe2  1  0.00000000  0.00000000  0.42354774  1
  Fe  Fe3  1  0.00000000  0.00000000  0.67496387  1
  Fe  Fe4  1  0.00000000  0.00000000  0.86305040  1
  Fe  Fe5  1  0.50000000  0.50000000  0.14288427  1
  Fe  Fe6  1  0.50000000  0.50000000  0.32974959  1
  Fe  Fe7  1  0.50000000  0.50000000  0.76857517  1
  Co  Co8  1  0.50000000  0.50000000  0.95575989  1
  Au  Au9  1  0.50000000  0.50000000  0.54896789  1
