# generated using pymatgen
data_Fe8CoN
_symmetry_space_group_name_H-M   P1
_cell_length_a   4.74110450
_cell_length_b   4.74129423
_cell_length_c   5.06041190
_cell_angle_alpha   91.85553902
_cell_angle_beta   97.56782126
_cell_angle_gamma   96.14329493
_symmetry_Int_Tables_number   1
_chemical_formula_structural   Fe8CoN
_chemical_formula_sum   'Fe8 Co1 N1'
_cell_volume   111.98977204
_cell_formula_units_Z   1
loop_
 _symmetry_equiv_pos_site_id
 _symmetry_equiv_pos_as_xyz
  1  'x, y, z'
loop_
 _atom_site_type_symbol
 _atom_site_label
 _atom_site_symmetry_multiplicity
 _atom_site_fract_x
 _atom_site_fract_y
 _atom_site_fract_z
 _atom_site_occupancy
  Fe  Fe0  1  0.02669690  0.10736596  0.52254884  1
  Fe  Fe1  1  0.15810691  0.83088170  0.88247870  1
  Fe  Fe2  1  0.25964586  0.64369233  0.36818313  1
  Fe  Fe3  1  0.38246344  0.41375825  0.81306749  1
  Fe  Fe4  1  0.47434146  0.19298490  0.25812738  1
  Fe  Fe5  1  0.59312459  0.96793950  0.70311628  1
  Fe  Fe6  1  0.71254976  0.74544627  0.15025521  1
  Fe  Fe7  1  0.92793876  0.29368961  0.03690043  1
  Co  Co8  1  0.80685136  0.52531485  0.59191565  1
  N  N9  1  0.09324204  0.96981108  0.20276334  1
