# generated using pymatgen
data_Fe8CoN
_symmetry_space_group_name_H-M   'P 1'
_cell_length_a   4.74129423
_cell_length_b   4.74110450
_cell_length_c   5.06041190
_cell_angle_alpha   97.56782126
_cell_angle_beta   91.85553902
_cell_angle_gamma   96.14329493
_symmetry_Int_Tables_number   1
_chemical_formula_structural   Fe8CoN
_chemical_formula_sum   'Fe8 Co1 N1'
_cell_volume   111.98977204
_cell_formula_units_Z   1
loop_
 _symmetry_equiv_pos_site_id
 _symmetry_equiv_pos_as_xyz
  1  'x, y, z'
loop_
 _atom_site_type_symbol
 _atom_site_label
 _atom_site_symmetry_multiplicity
 _atom_site_fract_x
 _atom_site_fract_y
 _atom_site_fract_z
 _atom_site_occupancy
  Fe  Fe0  1  0.16911830  0.84189309  0.11752130  1
  Fe  Fe1  1  0.03206050  0.40687541  0.29688372  1
  Fe  Fe2  1  0.70631039  0.07206124  0.96309957  1
  Fe  Fe3  1  0.89263404  0.97330310  0.47745116  1
  Fe  Fe4  1  0.25455373  0.28745024  0.84974479  1
  Fe  Fe5  1  0.80701510  0.52565854  0.74187262  1
  Fe  Fe6  1  0.58624175  0.61753656  0.18693251  1
  Fe  Fe7  1  0.35630767  0.74035414  0.63181687  1
  Co  Co8  1  0.47468515  0.19314864  0.40808435  1
  N  N9  1  0.03018892  0.90675796  0.79723666  1
