# generated using pymatgen
data_Fe8CoNi
_symmetry_space_group_name_H-M   Cm
_cell_length_a   8.58899299
_cell_length_b   4.04865813
_cell_length_c   6.99891054
_cell_angle_alpha   90.00000000
_cell_angle_beta   105.91342325
_cell_angle_gamma   90.00000000
_symmetry_Int_Tables_number   8
_chemical_formula_structural   Fe8CoNi
_chemical_formula_sum   'Fe16 Co2 Ni2'
_cell_volume   234.05238497
_cell_formula_units_Z   2
loop_
 _symmetry_equiv_pos_site_id
 _symmetry_equiv_pos_as_xyz
  1  'x, y, z'
  2  'x, -y, z'
  3  'x+1/2, y+1/2, z'
  4  'x+1/2, -y+1/2, z'
loop_
 _atom_site_type_symbol
 _atom_site_label
 _atom_site_symmetry_multiplicity
 _atom_site_fract_x
 _atom_site_fract_y
 _atom_site_fract_z
 _atom_site_occupancy
  Fe  Fe0  2  0.04529331  0.50000000  0.01189834  1
  Fe  Fe1  2  0.04612168  0.00000000  0.51586066  1
  Fe  Fe2  2  0.14276727  0.00000000  0.21338547  1
  Fe  Fe3  2  0.24379559  0.00000000  0.91338452  1
  Fe  Fe4  2  0.24570417  0.50000000  0.41381465  1
  Fe  Fe5  2  0.34269154  0.50000000  0.11160417  1
  Fe  Fe6  2  0.34375642  0.00000000  0.61414981  1
  Fe  Fe7  2  0.44338637  0.50000000  0.81326397  1
  Co  Co8  2  0.14382793  0.50000000  0.71178309  1
  Ni  Ni9  2  0.44457115  0.00000000  0.31393701  1
