# generated using pymatgen
data_Fe8O9
_symmetry_space_group_name_H-M   'P 1'
_cell_length_a   3.11566555
_cell_length_b   6.70807993
_cell_length_c   9.47239547
_cell_angle_alpha   102.46559422
_cell_angle_beta   89.95797047
_cell_angle_gamma   103.34453154
_symmetry_Int_Tables_number   1
_chemical_formula_structural   Fe8O9
_chemical_formula_sum   'Fe8 O9'
_cell_volume   187.83669130
_cell_formula_units_Z   1
loop_
 _symmetry_equiv_pos_site_id
 _symmetry_equiv_pos_as_xyz
  1  'x, y, z'
loop_
 _atom_site_type_symbol
 _atom_site_label
 _atom_site_symmetry_multiplicity
 _atom_site_fract_x
 _atom_site_fract_y
 _atom_site_fract_z
 _atom_site_occupancy
  Fe  Fe0  1  0.27190646  0.63378415  0.50519021  1
  Fe  Fe1  1  0.58596007  0.26095940  0.61281615  1
  Fe  Fe2  1  0.59636082  0.28962596  0.27731510  1
  Fe  Fe3  1  0.93128960  0.95562299  0.04862182  1
  Fe  Fe4  1  0.27627855  0.64538941  0.81463431  1
  Fe  Fe5  1  0.93423746  0.95870430  0.38498852  1
  Fe  Fe6  1  0.59303625  0.28100235  0.91992371  1
  Fe  Fe7  1  0.26036593  0.61245035  0.15762975  1
  O  O8  1  0.08718927  0.27883424  0.10491374  1
  O  O9  1  0.77260423  0.63619834  0.99983590  1
  O  O10  1  0.43281516  0.95945777  0.91509178  1
  O  O11  1  0.43321021  0.95099551  0.20704773  1
  O  O12  1  0.76291579  0.61958036  0.33771730  1
  O  O13  1  0.75983409  0.60957868  0.64020091  1
  O  O14  1  0.11271947  0.30601249  0.43777979  1
  O  O15  1  0.11630144  0.32449047  0.77780298  1
  O  O16  1  0.42380599  0.94293955  0.52136228  1
