# generated using pymatgen
data_Fe9CoNi
_symmetry_space_group_name_H-M   'P 1'
_cell_length_a   4.04478268
_cell_length_b   6.22863682
_cell_length_c   6.24130543
_cell_angle_alpha   118.19993004
_cell_angle_beta   108.90702332
_cell_angle_gamma   90.00000000
_symmetry_Int_Tables_number   1
_chemical_formula_structural   Fe9CoNi
_chemical_formula_sum   'Fe9 Co1 Ni1'
_cell_volume   128.86976545
_cell_formula_units_Z   1
loop_
 _symmetry_equiv_pos_site_id
 _symmetry_equiv_pos_as_xyz
  1  'x, y, z'
loop_
 _atom_site_type_symbol
 _atom_site_label
 _atom_site_symmetry_multiplicity
 _atom_site_fract_x
 _atom_site_fract_y
 _atom_site_fract_z
 _atom_site_occupancy
  Fe  Fe0  1  0.60487485  0.64321431  0.20974971  1
  Fe  Fe1  1  0.87639803  0.00398802  0.75279605  1
  Fe  Fe2  1  0.05791171  0.91333167  0.11582342  1
  Fe  Fe3  1  0.24050730  0.82472707  0.48101461  1
  Fe  Fe4  1  0.15140588  0.37029633  0.30281176  1
  Fe  Fe5  1  0.69580164  0.09596305  0.39160328  1
  Fe  Fe6  1  0.96734972  0.45802932  0.93469945  1
  Fe  Fe7  1  0.78644713  0.55168525  0.57289425  1
  Fe  Fe8  1  0.42220738  0.72947347  0.84441477  1
  Co  Co9  1  0.32995098  0.27853935  0.65990195  1
  Ni  Ni10  1  0.51356942  0.18700215  0.02713885  1
