# generated using pymatgen
data_Fe9N
_symmetry_space_group_name_H-M   P-1
_cell_length_a   4.74440007
_cell_length_b   4.75013882
_cell_length_c   5.07330815
_cell_angle_alpha   97.54490890
_cell_angle_beta   92.12456609
_cell_angle_gamma   95.98538640
_symmetry_Int_Tables_number   2
_chemical_formula_structural   Fe9N
_chemical_formula_sum   'Fe9 N1'
_cell_volume   112.57760839
_cell_formula_units_Z   1
loop_
 _symmetry_equiv_pos_site_id
 _symmetry_equiv_pos_as_xyz
  1  'x, y, z'
  2  '-x, -y, -z'
loop_
 _atom_site_type_symbol
 _atom_site_label
 _atom_site_symmetry_multiplicity
 _atom_site_fract_x
 _atom_site_fract_y
 _atom_site_fract_z
 _atom_site_occupancy
  Fe  Fe0  2  0.13352439  0.93474691  0.81963265  1
  Fe  Fe1  2  0.22360647  0.37980796  0.55561047  1
  Fe  Fe2  2  0.32576044  0.83304517  0.33437875  1
  Fe  Fe3  2  0.44547080  0.28415126  0.11073301  1
  Fe  Fe4  1  0.00000000  0.50000000  0.00000000  1
  N  N5  1  0.00000000  0.00000000  0.50000000  1
