# generated using pymatgen
data_Fe9N
_symmetry_space_group_name_H-M   'P 1'
_cell_length_a   4.74440007
_cell_length_b   4.75013882
_cell_length_c   5.07330815
_cell_angle_alpha   97.54490890
_cell_angle_beta   92.12456609
_cell_angle_gamma   95.98538640
_symmetry_Int_Tables_number   1
_chemical_formula_structural   Fe9N
_chemical_formula_sum   'Fe9 N1'
_cell_volume   112.57760839
_cell_formula_units_Z   1
loop_
 _symmetry_equiv_pos_site_id
 _symmetry_equiv_pos_as_xyz
  1  'x, y, z'
loop_
 _atom_site_type_symbol
 _atom_site_label
 _atom_site_symmetry_multiplicity
 _atom_site_fract_x
 _atom_site_fract_y
 _atom_site_fract_z
 _atom_site_occupancy
  Fe  Fe0  1  0.94574460  0.12830266  0.61609958  1
  Fe  Fe1  1  0.52473978  0.34720082  0.54646524  1
  Fe  Fe2  1  0.63394327  0.77767708  0.32461238  1
  Fe  Fe3  1  0.30287546  0.44285753  0.99134271  1
  Fe  Fe4  1  0.75350854  0.23000440  0.10135348  1
  Fe  Fe5  1  0.85466325  0.68256765  0.87943083  1
  Fe  Fe6  1  0.21292873  0.99610488  0.25474913  1
  Fe  Fe7  1  0.40451358  0.89527603  0.76975544  1
  Fe  Fe8  1  0.07953130  0.56243863  0.43560319  1
  N  N9  1  0.07926898  0.06304957  0.93573223  1
