# generated using pymatgen
data_Fe9Ni
_symmetry_space_group_name_H-M   C2/m
_cell_length_a   14.58768064
_cell_length_b   2.86867471
_cell_length_c   5.70807093
_cell_angle_alpha   90.00000000
_cell_angle_beta   101.25153487
_cell_angle_gamma   90.00000000
_symmetry_Int_Tables_number   12
_chemical_formula_structural   Fe9Ni
_chemical_formula_sum   'Fe18 Ni2'
_cell_volume   234.27639796
_cell_formula_units_Z   2
loop_
 _symmetry_equiv_pos_site_id
 _symmetry_equiv_pos_as_xyz
  1  'x, y, z'
  2  '-x, -y, -z'
  3  '-x, y, -z'
  4  'x, -y, z'
  5  'x+1/2, y+1/2, z'
  6  '-x+1/2, -y+1/2, -z'
  7  '-x+1/2, y+1/2, -z'
  8  'x+1/2, -y+1/2, z'
loop_
 _atom_site_type_symbol
 _atom_site_label
 _atom_site_symmetry_multiplicity
 _atom_site_fract_x
 _atom_site_fract_y
 _atom_site_fract_z
 _atom_site_occupancy
  Fe  Fe0  4  0.09983006  0.50000000  0.80210328  1
  Fe  Fe1  4  0.10003665  0.50000000  0.29821867  1
  Fe  Fe2  4  0.20031440  0.00000000  0.59962563  1
  Fe  Fe3  4  0.20056669  0.00000000  0.10049900  1
  Fe  Fe4  2  0.00000000  0.00000000  0.00000000  1
  Ni  Ni5  2  0.00000000  0.00000000  0.50000000  1
