# generated using pymatgen
data_Fe9O10
_symmetry_space_group_name_H-M   P1
_cell_length_a   3.10465859
_cell_length_b   7.67062143
_cell_length_c   9.08213087
_cell_angle_alpha   103.34250458
_cell_angle_beta   90.10711727
_cell_angle_gamma   90.09274155
_symmetry_Int_Tables_number   1
_chemical_formula_structural   Fe9O10
_chemical_formula_sum   'Fe9 O10'
_cell_volume   210.44897636
_cell_formula_units_Z   1
loop_
 _symmetry_equiv_pos_site_id
 _symmetry_equiv_pos_as_xyz
  1  'x, y, z'
loop_
 _atom_site_type_symbol
 _atom_site_label
 _atom_site_symmetry_multiplicity
 _atom_site_fract_x
 _atom_site_fract_y
 _atom_site_fract_z
 _atom_site_occupancy
  Fe  Fe0  1  0.02969188  0.37198428  0.89923243  1
  Fe  Fe1  1  0.02980934  0.56042472  0.53896979  1
  Fe  Fe2  1  0.03217345  0.75148393  0.08624631  1
  Fe  Fe3  1  0.03363381  0.93401530  0.70740458  1
  Fe  Fe4  1  0.03792292  0.16421498  0.31387344  1
  Fe  Fe5  1  0.52951425  0.85475103  0.40004759  1
  Fe  Fe6  1  0.53032515  0.06954682  0.01252952  1
  Fe  Fe7  1  0.53447399  0.46584661  0.21558206  1
  Fe  Fe8  1  0.53749045  0.24262879  0.60476756  1
  O  O9  1  0.01853273  0.05304214  0.51557070  1
  O  O10  1  0.03276829  0.66558630  0.28718830  1
  O  O11  1  0.03307451  0.90339000  0.92853420  1
  O  O12  1  0.03323351  0.25445279  0.09482578  1
  O  O13  1  0.04743422  0.41835318  0.70013749  1
  O  O14  1  0.51138506  0.35680348  0.40051202  1
  O  O15  1  0.53164755  0.75783092  0.59262810  1
  O  O16  1  0.53229151  0.53346072  0.00189869  1
  O  O17  1  0.53323509  0.17394725  0.82825702  1
  O  O18  1  0.54978494  0.97439317  0.20461626  1
