# generated using pymatgen
data_Fe9O10
_symmetry_space_group_name_H-M   'P 1'
_cell_length_a   3.10465859
_cell_length_b   7.67062143
_cell_length_c   9.08213087
_cell_angle_alpha   103.34250458
_cell_angle_beta   89.89288273
_cell_angle_gamma   89.90725845
_symmetry_Int_Tables_number   1
_chemical_formula_structural   Fe9O10
_chemical_formula_sum   'Fe9 O10'
_cell_volume   210.44897636
_cell_formula_units_Z   1
loop_
 _symmetry_equiv_pos_site_id
 _symmetry_equiv_pos_as_xyz
  1  'x, y, z'
loop_
 _atom_site_type_symbol
 _atom_site_label
 _atom_site_symmetry_multiplicity
 _atom_site_fract_x
 _atom_site_fract_y
 _atom_site_fract_z
 _atom_site_occupancy
  Fe  Fe0  1  0.02969188  0.62801572  0.10076757  1
  Fe  Fe1  1  0.53749045  0.75737121  0.39523244  1
  Fe  Fe2  1  0.03792292  0.83578502  0.68612656  1
  Fe  Fe3  1  0.03217345  0.24851607  0.91375369  1
  Fe  Fe4  1  0.53032515  0.93045318  0.98747048  1
  Fe  Fe5  1  0.03363381  0.06598470  0.29259542  1
  Fe  Fe6  1  0.53447399  0.53415339  0.78441794  1
  Fe  Fe7  1  0.02980934  0.43957528  0.46103021  1
  Fe  Fe8  1  0.52951425  0.14524897  0.59995241  1
  O  O9  1  0.03307451  0.09661000  0.07146580  1
  O  O10  1  0.53323509  0.82605275  0.17174298  1
  O  O11  1  0.01853273  0.94695786  0.48442930  1
  O  O12  1  0.54978494  0.02560683  0.79538374  1
  O  O13  1  0.51138506  0.64319652  0.59948798  1
  O  O14  1  0.03323351  0.74554721  0.90517422  1
  O  O15  1  0.53164755  0.24216908  0.40737190  1
  O  O16  1  0.04743422  0.58164682  0.29986251  1
  O  O17  1  0.03276829  0.33441370  0.71281170  1
  O  O18  1  0.53229151  0.46653928  0.99810131  1
