# generated using pymatgen
data_LiFe9O10
_symmetry_space_group_name_H-M   'P 1'
_cell_length_a   3.12540784
_cell_length_b   6.79296463
_cell_length_c   10.28162555
_cell_angle_alpha   78.91433108
_cell_angle_beta   89.83200637
_cell_angle_gamma   76.67427149
_symmetry_Int_Tables_number   1
_chemical_formula_structural   LiFe9O10
_chemical_formula_sum   'Li1 Fe9 O10'
_cell_volume   208.25045870
_cell_formula_units_Z   1
loop_
 _symmetry_equiv_pos_site_id
 _symmetry_equiv_pos_as_xyz
  1  'x, y, z'
loop_
 _atom_site_type_symbol
 _atom_site_label
 _atom_site_symmetry_multiplicity
 _atom_site_fract_x
 _atom_site_fract_y
 _atom_site_fract_z
 _atom_site_occupancy
  Li  Li0  1  0.94263115  0.42635574  0.84001645  1
  Fe  Fe1  1  0.44141355  0.42977069  0.33729548  1
  Fe  Fe2  1  0.84520922  0.62392509  0.53992630  1
  Fe  Fe3  1  0.04032098  0.23186811  0.13421364  1
  Fe  Fe4  1  0.53814104  0.23536942  0.64452164  1
  Fe  Fe5  1  0.63632359  0.04243330  0.93572463  1
  Fe  Fe6  1  0.34497595  0.62570897  0.03326905  1
  Fe  Fe7  1  0.24601650  0.81986557  0.74125928  1
  Fe  Fe8  1  0.14337090  0.02888317  0.43877356  1
  Fe  Fe9  1  0.73939772  0.83098692  0.23459200  1
  O  O10  1  0.39304801  0.53937157  0.68438299  1
  O  O11  1  0.10161493  0.11141760  0.78367915  1
  O  O12  1  0.28451611  0.73312447  0.39634495  1
  O  O13  1  0.78677274  0.73835307  0.87362155  1
  O  O14  1  0.60296041  0.12446705  0.28351468  1
  O  O15  1  0.89581418  0.53524954  0.19359381  1
  O  O16  1  0.69493972  0.92408322  0.60360596  1
  O  O17  1  0.48166382  0.33093376  0.99286160  1
  O  O18  1  0.19618701  0.91996536  0.08159215  1
  O  O19  1  0.98996523  0.31930888  0.48482326  1
