# generated using pymatgen
data_LiFe9O10
_symmetry_space_group_name_H-M   Cm
_cell_length_a   13.22013587
_cell_length_b   3.12540784
_cell_length_c   10.28162555
_cell_angle_alpha   90.00000000
_cell_angle_beta   101.35594357
_cell_angle_gamma   90.00000000
_symmetry_Int_Tables_number   8
_chemical_formula_structural   LiFe9O10
_chemical_formula_sum   'Li2 Fe18 O20'
_cell_volume   416.50271115
_cell_formula_units_Z   2
loop_
 _symmetry_equiv_pos_site_id
 _symmetry_equiv_pos_as_xyz
  1  'x, y, z'
  2  'x, -y, z'
  3  'x+1/2, y+1/2, z'
  4  'x+1/2, -y+1/2, z'
loop_
 _atom_site_type_symbol
 _atom_site_label
 _atom_site_symmetry_multiplicity
 _atom_site_fract_x
 _atom_site_fract_y
 _atom_site_fract_z
 _atom_site_occupancy
  Li  Li0  2  0.36898689  0.00000000  0.15998355  1
  Fe  Fe1  2  0.06574181  0.00000000  0.25874072  1
  Fe  Fe2  2  0.07130248  0.50000000  0.76540800  1
  Fe  Fe3  2  0.17025060  0.00000000  0.56122644  1
  Fe  Fe4  2  0.17702567  0.50000000  0.06427537  1
  Fe  Fe5  2  0.27174307  0.00000000  0.86578636  1
  Fe  Fe6  2  0.27349373  0.50000000  0.35547836  1
  Fe  Fe7  2  0.37069437  0.50000000  0.66270452  1
  Fe  Fe8  2  0.46777156  0.00000000  0.46007370  1
  Fe  Fe9  2  0.46866350  0.50000000  0.96673095  1
  O  O10  2  0.02237125  0.00000000  0.60365505  1
  O  O11  2  0.02498555  0.50000000  0.12637845  1
  O  O12  2  0.11579170  0.00000000  0.91840785  1
  O  O13  2  0.11785063  0.50000000  0.39639404  1
  O  O14  2  0.21151782  0.00000000  0.21632085  1
  O  O15  2  0.21804254  0.50000000  0.71648532  1
  O  O16  2  0.31546346  0.00000000  0.51517674  1
  O  O17  2  0.32127590  0.50000000  0.00713840  1
  O  O18  2  0.42343379  0.00000000  0.80640619  1
  O  O19  2  0.42549480  0.50000000  0.31561701  1
