# generated using pymatgen
data_LiMn(Fe2O3)2
_symmetry_space_group_name_H-M   'P 1'
_cell_length_a   5.35143702
_cell_length_b   5.33071457
_cell_length_c   5.31406012
_cell_angle_alpha   71.33261373
_cell_angle_beta   80.75649639
_cell_angle_gamma   60.21038146
_symmetry_Int_Tables_number   1
_chemical_formula_structural   LiMn(Fe2O3)2
_chemical_formula_sum   'Li1 Mn1 Fe4 O6'
_cell_volume   124.64041533
_cell_formula_units_Z   1
loop_
 _symmetry_equiv_pos_site_id
 _symmetry_equiv_pos_as_xyz
  1  'x, y, z'
loop_
 _atom_site_type_symbol
 _atom_site_label
 _atom_site_symmetry_multiplicity
 _atom_site_fract_x
 _atom_site_fract_y
 _atom_site_fract_z
 _atom_site_occupancy
  Li  Li0  1  0.41284406  0.24425142  0.60557300  1
  Mn  Mn1  1  0.73142522  0.58696110  0.61115226  1
  Fe  Fe2  1  0.72809615  0.08277878  0.10606668  1
  Fe  Fe3  1  0.07437157  0.91587579  0.60392933  1
  Fe  Fe4  1  0.40089196  0.75384400  0.10617398  1
  Fe  Fe5  1  0.07485250  0.41645889  0.10466438  1
  O  O6  1  0.05456886  0.14787049  0.86331694  1
  O  O7  1  0.73660886  0.84163278  0.87125870  1
  O  O8  1  0.41032515  0.47586005  0.86825174  1
  O  O9  1  0.41806150  0.00910077  0.34964560  1
  O  O10  1  0.04939184  0.70172396  0.35099204  1
  O  O11  1  0.74027136  0.33727656  0.32935221  1
