# generated using pymatgen
data_LiMn(Fe2O3)2
_symmetry_space_group_name_H-M   C2
_cell_length_a   5.33071457
_cell_length_b   9.28855754
_cell_length_c   5.31406012
_cell_angle_alpha   90.00000000
_cell_angle_beta   108.66738627
_cell_angle_gamma   90.00000000
_symmetry_Int_Tables_number   5
_chemical_formula_structural   LiMn(Fe2O3)2
_chemical_formula_sum   'Li2 Mn2 Fe8 O12'
_cell_volume   249.28156754
_cell_formula_units_Z   2
loop_
 _symmetry_equiv_pos_site_id
 _symmetry_equiv_pos_as_xyz
  1  'x, y, z'
  2  '-x, y, -z'
  3  'x+1/2, y+1/2, z'
  4  '-x+1/2, y+1/2, -z'
loop_
 _atom_site_type_symbol
 _atom_site_label
 _atom_site_symmetry_multiplicity
 _atom_site_fract_x
 _atom_site_fract_y
 _atom_site_fract_z
 _atom_site_occupancy
  Li  Li0  2  0.00000000  0.65709548  0.00000000  1
  Mn  Mn1  2  0.00000000  0.31638606  0.00000000  1
  Fe  Fe2  2  0.00000000  0.15111943  0.50000000  1
  Fe  Fe3  2  0.00000000  0.48809970  0.50000000  1
  Fe  Fe4  2  0.00000000  0.81472153  0.50000000  1
  Fe  Fe5  2  0.00000000  0.98785924  0.00000000  1
  O  O6  4  0.22448147  0.97795788  0.74225606  1
  O  O7  4  0.23034918  0.65583603  0.73732125  1
  O  O8  4  0.24073624  0.81897788  0.26568571  1
