# generated using pymatgen
data_MgFe5O6
_symmetry_space_group_name_H-M   P-1
_cell_length_a   5.33540173
_cell_length_b   5.34713993
_cell_length_c   5.35688668
_cell_angle_alpha   60.54143146
_cell_angle_beta   70.78525115
_cell_angle_gamma   80.28129251
_symmetry_Int_Tables_number   2
_chemical_formula_structural   MgFe5O6
_chemical_formula_sum   'Mg1 Fe5 O6'
_cell_volume   125.65103084
_cell_formula_units_Z   1
loop_
 _symmetry_equiv_pos_site_id
 _symmetry_equiv_pos_as_xyz
  1  'x, y, z'
  2  '-x, -y, -z'
loop_
 _atom_site_type_symbol
 _atom_site_label
 _atom_site_symmetry_multiplicity
 _atom_site_fract_x
 _atom_site_fract_y
 _atom_site_fract_z
 _atom_site_occupancy
  Mg  Mg0  1  0.00000000  0.00000000  0.00000000  1
  Fe  Fe1  2  0.00387833  0.33131405  0.33178712  1
  Fe  Fe2  2  0.49715719  0.66634619  0.16972876  1
  Fe  Fe3  1  0.50000000  0.00000000  0.50000000  1
  O  O4  2  0.23547877  0.01060832  0.24588360  1
  O  O5  2  0.24252412  0.33731349  0.60430951  1
  O  O6  2  0.25973264  0.68788641  0.91232539  1
