# generated using pymatgen
data_MgFe4O5
_symmetry_space_group_name_H-M   'P 1'
_cell_length_a   4.44714045
_cell_length_b   5.35311463
_cell_length_c   5.33519555
_cell_angle_alpha   80.01538532
_cell_angle_beta   65.63836245
_cell_angle_gamma   65.11296586
_symmetry_Int_Tables_number   1
_chemical_formula_structural   MgFe4O5
_chemical_formula_sum   'Mg1 Fe4 O5'
_cell_volume   104.95690556
_cell_formula_units_Z   1
loop_
 _symmetry_equiv_pos_site_id
 _symmetry_equiv_pos_as_xyz
  1  'x, y, z'
loop_
 _atom_site_type_symbol
 _atom_site_label
 _atom_site_symmetry_multiplicity
 _atom_site_fract_x
 _atom_site_fract_y
 _atom_site_fract_z
 _atom_site_occupancy
  Mg  Mg0  1  0.39267109  0.82316337  0.10944059  1
  Fe  Fe1  1  0.79348281  0.61997486  0.51199281  1
  Fe  Fe2  1  0.99166195  0.02656818  0.70589794  1
  Fe  Fe3  1  0.19507905  0.42094731  0.90552947  1
  Fe  Fe4  1  0.59132930  0.22503885  0.31110127  1
  O  O5  1  0.68384165  0.44185054  0.90582708  1
  O  O6  1  0.89275491  0.82350939  0.10928816  1
  O  O7  1  0.30398813  0.61914278  0.49071025  1
  O  O8  1  0.48134389  0.02675267  0.72790796  1
  O  O9  1  0.10119766  0.20518795  0.31255191  1
