# generated using pymatgen
data_MgFe4O5
_symmetry_space_group_name_H-M   'P 1'
_cell_length_a   3.12307063
_cell_length_b   5.36414738
_cell_length_c   6.84459201
_cell_angle_alpha   96.52850944
_cell_angle_beta   103.17699255
_cell_angle_gamma   106.90098297
_symmetry_Int_Tables_number   1
_chemical_formula_structural   MgFe4O5
_chemical_formula_sum   'Mg1 Fe4 O5'
_cell_volume   104.81138537
_cell_formula_units_Z   1
loop_
 _symmetry_equiv_pos_site_id
 _symmetry_equiv_pos_as_xyz
  1  'x, y, z'
loop_
 _atom_site_type_symbol
 _atom_site_label
 _atom_site_symmetry_multiplicity
 _atom_site_fract_x
 _atom_site_fract_y
 _atom_site_fract_z
 _atom_site_occupancy
  Mg  Mg0  1  0.32548164  0.16564904  0.17953858  1
  Fe  Fe1  1  0.71427250  0.76303025  0.37873835  1
  Fe  Fe2  1  0.91922672  0.56854688  0.98047433  1
  Fe  Fe3  1  0.53751838  0.97424572  0.78149364  1
  Fe  Fe4  1  0.12593003  0.35773455  0.57755118  1
  O  O5  1  0.63294986  0.87600953  0.09078164  1
  O  O6  1  0.01097074  0.45529960  0.26818693  1
  O  O7  1  0.41042962  0.07598142  0.47553938  1
  O  O8  1  0.86067845  0.66608987  0.67974328  1
  O  O9  1  0.20594447  0.25608197  0.88361144  1
