# generated using pymatgen
data_MgFe5O6
_symmetry_space_group_name_H-M   'P 1'
_cell_length_a   5.34713993
_cell_length_b   5.33540173
_cell_length_c   5.35688668
_cell_angle_alpha   70.78525115
_cell_angle_beta   60.54143146
_cell_angle_gamma   80.28129251
_symmetry_Int_Tables_number   1
_chemical_formula_structural   MgFe5O6
_chemical_formula_sum   'Mg1 Fe5 O6'
_cell_volume   125.65103084
_cell_formula_units_Z   1
loop_
 _symmetry_equiv_pos_site_id
 _symmetry_equiv_pos_as_xyz
  1  'x, y, z'
loop_
 _atom_site_type_symbol
 _atom_site_label
 _atom_site_symmetry_multiplicity
 _atom_site_fract_x
 _atom_site_fract_y
 _atom_site_fract_z
 _atom_site_occupancy
  Mg  Mg0  1  0.69169166  0.65282922  0.87086065  1
  Fe  Fe1  1  0.02534546  0.15567202  0.70113189  1
  Fe  Fe2  1  0.69160179  0.15293697  0.37090167  1
  Fe  Fe3  1  0.35800140  0.15057141  0.04004585  1
  Fe  Fe4  1  0.02300571  0.65670755  0.20264778  1
  Fe  Fe5  1  0.36040323  0.64996803  0.53842142  1
  O  O6  1  0.70229997  0.88830798  0.11674425  1
  O  O7  1  0.02900515  0.89535334  0.47517017  1
  O  O8  1  0.68102579  0.41808527  0.62443809  1
  O  O9  1  0.35434750  0.41082767  0.26632228  1
  O  O10  1  0.00380524  0.39309658  0.95853527  1
  O  O11  1  0.37956917  0.91302020  0.78301664  1
