# generated using pymatgen
data_MgFe4O5
_symmetry_space_group_name_H-M   C2
_cell_length_a   10.26492549
_cell_length_b   3.12307063
_cell_length_c   7.58556412
_cell_angle_alpha   90.00000000
_cell_angle_beta   120.45681987
_cell_angle_gamma   90.00000000
_symmetry_Int_Tables_number   5
_chemical_formula_structural   MgFe4O5
_chemical_formula_sum   'Mg2 Fe8 O10'
_cell_volume   209.62279555
_cell_formula_units_Z   2
loop_
 _symmetry_equiv_pos_site_id
 _symmetry_equiv_pos_as_xyz
  1  'x, y, z'
  2  '-x, y, -z'
  3  'x+1/2, y+1/2, z'
  4  '-x+1/2, y+1/2, -z'
loop_
 _atom_site_type_symbol
 _atom_site_label
 _atom_site_symmetry_multiplicity
 _atom_site_fract_x
 _atom_site_fract_y
 _atom_site_fract_z
 _atom_site_occupancy
  Mg  Mg0  2  0.00000000  0.14594306  0.50000000  1
  Fe  Fe1  4  0.10332081  0.65270393  0.89804494  1
  Fe  Fe2  4  0.19909072  0.13644342  0.30080023  1
  O  O3  4  0.10044128  0.64260950  0.41124306  1
  O  O4  4  0.19283421  0.12772445  0.79600080  1
  O  O5  2  0.00000000  0.18081710  0.00000000  1
