# generated using pymatgen
data_MgFe15
_symmetry_space_group_name_H-M   P-1
_cell_length_a   4.75459453
_cell_length_b   4.97249465
_cell_length_c   8.46690034
_cell_angle_alpha   95.59971423
_cell_angle_beta   104.82678891
_cell_angle_gamma   100.06437685
_symmetry_Int_Tables_number   2
_chemical_formula_structural   MgFe15
_chemical_formula_sum   'Mg1 Fe15'
_cell_volume   188.39204590
_cell_formula_units_Z   1
loop_
 _symmetry_equiv_pos_site_id
 _symmetry_equiv_pos_as_xyz
  1  'x, y, z'
  2  '-x, -y, -z'
loop_
 _atom_site_type_symbol
 _atom_site_label
 _atom_site_symmetry_multiplicity
 _atom_site_fract_x
 _atom_site_fract_y
 _atom_site_fract_z
 _atom_site_occupancy
  Mg  Mg0  1  0.00000000  0.50000000  0.00000000  1
  Fe  Fe1  2  0.12483909  0.81093631  0.74981497  1
  Fe  Fe2  2  0.12751888  0.30709404  0.74291589  1
  Fe  Fe3  2  0.24813032  0.62615707  0.49902322  1
  Fe  Fe4  2  0.25087657  0.12322142  0.49867199  1
  Fe  Fe5  2  0.37459761  0.93574485  0.25001178  1
  Fe  Fe6  2  0.38427794  0.43524775  0.25713526  1
  Fe  Fe7  2  0.48620284  0.24386932  0.99970570  1
  Fe  Fe8  1  0.00000000  0.00000000  0.00000000  1
