# generated using pymatgen
data_MgMn3(FeO3)2
_symmetry_space_group_name_H-M   Cm
_cell_length_a   13.61718001
_cell_length_b   3.13769230
_cell_length_c   6.30065876
_cell_angle_alpha   90.00000000
_cell_angle_beta   103.16105958
_cell_angle_gamma   90.00000000
_symmetry_Int_Tables_number   8
_chemical_formula_structural   MgMn3(FeO3)2
_chemical_formula_sum   'Mg2 Mn6 Fe4 O12'
_cell_volume   262.13424941
_cell_formula_units_Z   2
loop_
 _symmetry_equiv_pos_site_id
 _symmetry_equiv_pos_as_xyz
  1  'x, y, z'
  2  'x, -y, z'
  3  'x+1/2, y+1/2, z'
  4  'x+1/2, -y+1/2, z'
loop_
 _atom_site_type_symbol
 _atom_site_label
 _atom_site_symmetry_multiplicity
 _atom_site_fract_x
 _atom_site_fract_y
 _atom_site_fract_z
 _atom_site_occupancy
  Mg  Mg0  2  0.46259296  0.50000000  0.66670158  1
  Mn  Mn1  2  0.12754948  0.50000000  0.49953600  1
  Mn  Mn2  2  0.29509951  0.00000000  0.83351271  1
  Mn  Mn3  2  0.29595469  0.00000000  0.33308805  1
  Fe  Fe4  2  0.12695092  0.50000000  0.99879776  1
  Fe  Fe5  2  0.46281127  0.50000000  0.16621849  1
  O  O6  2  0.12336614  0.00000000  0.74829775  1
  O  O7  2  0.12773465  0.00000000  0.24792630  1
  O  O8  2  0.29395917  0.50000000  0.08197787  1
  O  O9  2  0.30032699  0.50000000  0.58719734  1
  O  O10  2  0.46160965  0.00000000  0.42257192  1
  O  O11  2  0.46473727  0.00000000  0.91028421  1
