# generated using pymatgen
data_MgMn2Fe5O8
_symmetry_space_group_name_H-M   'P 1'
_cell_length_a   6.20015138
_cell_length_b   6.23464470
_cell_length_c   6.27922777
_cell_angle_alpha   119.81912039
_cell_angle_beta   120.07853376
_cell_angle_gamma   89.74286748
_symmetry_Int_Tables_number   1
_chemical_formula_structural   MgMn2Fe5O8
_chemical_formula_sum   'Mg1 Mn2 Fe5 O8'
_cell_volume   172.27851756
_cell_formula_units_Z   1
loop_
 _symmetry_equiv_pos_site_id
 _symmetry_equiv_pos_as_xyz
  1  'x, y, z'
loop_
 _atom_site_type_symbol
 _atom_site_label
 _atom_site_symmetry_multiplicity
 _atom_site_fract_x
 _atom_site_fract_y
 _atom_site_fract_z
 _atom_site_occupancy
  Mg  Mg0  1  0.02125623  0.49870008  0.17523077  1
  Mn  Mn1  1  0.52117928  0.49816851  0.67436786  1
  Mn  Mn2  1  0.52118496  0.99929430  0.67564076  1
  Fe  Fe3  1  0.02121230  0.99848012  0.67508906  1
  Fe  Fe4  1  0.52092965  0.99784384  0.17503539  1
  Fe  Fe5  1  0.02126361  0.49876858  0.67488679  1
  Fe  Fe6  1  0.52099228  0.49863398  0.17525944  1
  Fe  Fe7  1  0.02061859  0.99813134  0.17464248  1
  O  O8  1  0.25661120  0.73362210  0.65691321  1
  O  O9  1  0.77448652  0.75342638  0.67875919  1
  O  O10  1  0.26725975  0.24377068  0.67101176  1
  O  O11  1  0.76941866  0.26715622  0.17678395  1
  O  O12  1  0.27257926  0.72948262  0.17326185  1
  O  O13  1  0.26185919  0.23114292  0.16743710  1
  O  O14  1  0.78017428  0.76521067  0.18251217  1
  O  O15  1  0.78595869  0.26332125  0.69316946  1
