# generated using pymatgen
data_MgMnCdFe5O8
_symmetry_space_group_name_H-M   'P 1'
_cell_length_a   6.30204652
_cell_length_b   6.26874530
_cell_length_c   6.26747424
_cell_angle_alpha   91.06186550
_cell_angle_beta   119.02705175
_cell_angle_gamma   119.17516886
_symmetry_Int_Tables_number   1
_chemical_formula_structural   MgMnCdFe5O8
_chemical_formula_sum   'Mg1 Mn1 Cd1 Fe5 O8'
_cell_volume   178.17233939
_cell_formula_units_Z   1
loop_
 _symmetry_equiv_pos_site_id
 _symmetry_equiv_pos_as_xyz
  1  'x, y, z'
loop_
 _atom_site_type_symbol
 _atom_site_label
 _atom_site_symmetry_multiplicity
 _atom_site_fract_x
 _atom_site_fract_y
 _atom_site_fract_z
 _atom_site_occupancy
  Mg  Mg0  1  0.00000000  0.00000000  0.50000000  1
  Mn  Mn1  1  0.50000000  0.50000000  0.50000000  1
  Cd  Cd2  1  0.50000000  0.50000000  0.00000000  1
  Fe  Fe3  1  0.00000000  0.50000000  0.00000000  1
  Fe  Fe4  1  0.00000000  0.00000000  0.00000000  1
  Fe  Fe5  1  0.50000000  0.00000000  0.00000000  1
  Fe  Fe6  1  0.50000000  0.00000000  0.50000000  1
  Fe  Fe7  1  0.00000000  0.50000000  0.50000000  1
  O  O8  1  0.49937567  0.23561522  0.24640094  1
  O  O9  1  0.99673610  0.75675783  0.73977267  1
  O  O10  1  0.50062433  0.76438478  0.75359906  1
  O  O11  1  0.48072742  0.22890631  0.72546383  1
  O  O12  1  0.00326390  0.24324217  0.26022733  1
  O  O13  1  0.99035444  0.25008973  0.75014082  1
  O  O14  1  0.00964556  0.74991027  0.24985918  1
  O  O15  1  0.51927258  0.77109369  0.27453617  1
