# generated using pymatgen
data_MgMn2Fe4O7
_symmetry_space_group_name_H-M   Cm
_cell_length_a   10.37495973
_cell_length_b   3.15334705
_cell_length_c   9.24037867
_cell_angle_alpha   90.00000000
_cell_angle_beta   94.80802372
_cell_angle_gamma   90.00000000
_symmetry_Int_Tables_number   8
_chemical_formula_structural   MgMn2Fe4O7
_chemical_formula_sum   'Mg2 Mn4 Fe8 O14'
_cell_volume   301.24305258
_cell_formula_units_Z   2
loop_
 _symmetry_equiv_pos_site_id
 _symmetry_equiv_pos_as_xyz
  1  'x, y, z'
  2  'x, -y, z'
  3  'x+1/2, y+1/2, z'
  4  'x+1/2, -y+1/2, z'
loop_
 _atom_site_type_symbol
 _atom_site_label
 _atom_site_symmetry_multiplicity
 _atom_site_fract_x
 _atom_site_fract_y
 _atom_site_fract_z
 _atom_site_occupancy
  Mg  Mg0  2  0.03263128  0.00000000  0.36378395  1
  Mn  Mn1  2  0.31909718  0.00000000  0.50648051  1
  Mn  Mn2  2  0.38684371  0.50000000  0.79368296  1
  Fe  Fe3  2  0.10384750  0.50000000  0.65115207  1
  Fe  Fe4  2  0.17617693  0.00000000  0.94353744  1
  Fe  Fe5  2  0.24687629  0.50000000  0.22344612  1
  Fe  Fe6  2  0.46433319  0.00000000  0.08326793  1
  O  O7  2  0.03533411  0.50000000  0.87030967  1
  O  O8  2  0.10408152  0.00000000  0.15886232  1
  O  O9  2  0.16929530  0.50000000  0.43315784  1
  O  O10  2  0.24559428  0.00000000  0.72428923  1
  O  O11  2  0.31500721  0.50000000  0.01243689  1
  O  O12  2  0.39788066  0.00000000  0.29230626  1
  O  O13  2  0.46353393  0.50000000  0.57426854  1
