# generated using pymatgen
data_MgMn(Fe3O4)2
_symmetry_space_group_name_H-M   P-1
_cell_length_a   6.18198775
_cell_length_b   6.21182713
_cell_length_c   6.21814305
_cell_angle_alpha   119.57121475
_cell_angle_beta   119.65803412
_cell_angle_gamma   90.27940396
_symmetry_Int_Tables_number   2
_chemical_formula_structural   MgMn(Fe3O4)2
_chemical_formula_sum   'Mg1 Mn1 Fe6 O8'
_cell_volume   170.39297123
_cell_formula_units_Z   1
loop_
 _symmetry_equiv_pos_site_id
 _symmetry_equiv_pos_as_xyz
  1  'x, y, z'
  2  '-x, -y, -z'
  3  'x-z+1/2, -y, -z'
  4  '-x+z+1/2, y, z'
loop_
 _atom_site_type_symbol
 _atom_site_label
 _atom_site_symmetry_multiplicity
 _atom_site_fract_x
 _atom_site_fract_y
 _atom_site_fract_z
 _atom_site_occupancy
  Mg  Mg0  1  0.00000000  0.00000000  0.50000000  1
  Mn  Mn1  1  0.50000000  0.00000000  0.50000000  1
  Fe  Fe2  2  0.00000000  0.00000000  0.00000000  1
  Fe  Fe3  2  0.00000000  0.50000000  0.00000000  1
  Fe  Fe4  1  0.00000000  0.50000000  0.50000000  1
  Fe  Fe5  1  0.50000000  0.50000000  0.50000000  1
  O  O6  4  0.23320786  0.74563451  0.48787960  1
  O  O7  2  0.23950976  0.22665897  0.98247800  1
  O  O8  2  0.25745203  0.74054745  0.99878043  1
