# generated using pymatgen
data_MgMnCdFe5O8
_symmetry_space_group_name_H-M   P-1
_cell_length_a   6.26747424
_cell_length_b   6.26874530
_cell_length_c   6.30204652
_cell_angle_alpha   119.17516886
_cell_angle_beta   119.02705175
_cell_angle_gamma   91.06186550
_symmetry_Int_Tables_number   2
_chemical_formula_structural   MgMnCdFe5O8
_chemical_formula_sum   'Mg1 Mn1 Cd1 Fe5 O8'
_cell_volume   178.17233939
_cell_formula_units_Z   1
loop_
 _symmetry_equiv_pos_site_id
 _symmetry_equiv_pos_as_xyz
  1  'x, y, z'
  2  '-x, -y, -z'
loop_
 _atom_site_type_symbol
 _atom_site_label
 _atom_site_symmetry_multiplicity
 _atom_site_fract_x
 _atom_site_fract_y
 _atom_site_fract_z
 _atom_site_occupancy
  Mg  Mg0  1  0.50000000  0.00000000  0.00000000  1
  Mn  Mn1  1  0.50000000  0.50000000  0.50000000  1
  Cd  Cd2  1  0.00000000  0.50000000  0.50000000  1
  Fe  Fe3  1  0.00000000  0.00000000  0.00000000  1
  Fe  Fe4  1  0.00000000  0.00000000  0.50000000  1
  Fe  Fe5  1  0.00000000  0.50000000  0.00000000  1
  Fe  Fe6  1  0.50000000  0.00000000  0.50000000  1
  Fe  Fe7  1  0.50000000  0.50000000  0.00000000  1
  O  O8  2  0.24640094  0.23561522  0.49937567  1
  O  O9  2  0.24985918  0.74991027  0.00964556  1
  O  O10  2  0.26022733  0.24324217  0.00326390  1
  O  O11  2  0.27453617  0.77109369  0.51927258  1
