# generated using pymatgen
data_MgMn(Fe3O4)2
_symmetry_space_group_name_H-M   'P 1'
_cell_length_a   6.21182713
_cell_length_b   6.18198775
_cell_length_c   6.21814305
_cell_angle_alpha   119.65803412
_cell_angle_beta   119.57121475
_cell_angle_gamma   90.27940396
_symmetry_Int_Tables_number   1
_chemical_formula_structural   MgMn(Fe3O4)2
_chemical_formula_sum   'Mg1 Mn1 Fe6 O8'
_cell_volume   170.39297123
_cell_formula_units_Z   1
loop_
 _symmetry_equiv_pos_site_id
 _symmetry_equiv_pos_as_xyz
  1  'x, y, z'
loop_
 _atom_site_type_symbol
 _atom_site_label
 _atom_site_symmetry_multiplicity
 _atom_site_fract_x
 _atom_site_fract_y
 _atom_site_fract_z
 _atom_site_occupancy
  Mg  Mg0  1  0.67047413  0.82416727  0.45248092  1
  Mn  Mn1  1  0.66985701  0.32436621  0.45259980  1
  Fe  Fe2  1  0.16990374  0.82407645  0.95275935  1
  Fe  Fe3  1  0.16990313  0.32437349  0.95261058  1
  Fe  Fe4  1  0.66991331  0.32410248  0.95241999  1
  Fe  Fe5  1  0.66980060  0.82444636  0.95264185  1
  Fe  Fe6  1  0.17038956  0.82439830  0.45294165  1
  Fe  Fe7  1  0.16998861  0.32421503  0.45235227  1
  O  O8  1  0.89713310  0.06367703  0.93495892  1
  O  O9  1  0.92992667  0.56671524  0.95370048  1
  O  O10  1  0.41610863  0.05737513  0.44036051  1
  O  O11  1  0.41829837  0.57399566  0.45378114  1
  O  O12  1  0.40969850  0.08187881  0.95178661  1
  O  O13  1  0.92419569  0.59098767  0.46481203  1
  O  O14  1  0.44280692  0.58461458  0.96999252  1
  O  O15  1  0.92208813  0.07482017  0.45141852  1
