# generated using pymatgen
data_MgMn2Fe5O8
_symmetry_space_group_name_H-M   P-1
_cell_length_a   6.20015138
_cell_length_b   6.23265790
_cell_length_c   6.23464470
_cell_angle_alpha   119.76967706
_cell_angle_beta   90.25713252
_cell_angle_gamma   119.33092649
_symmetry_Int_Tables_number   2
_chemical_formula_structural   MgMn2Fe5O8
_chemical_formula_sum   'Mg1 Mn2 Fe5 O8'
_cell_volume   172.27851756
_cell_formula_units_Z   1
loop_
 _symmetry_equiv_pos_site_id
 _symmetry_equiv_pos_as_xyz
  1  'x, y, z'
  2  '-x, -y, -z'
loop_
 _atom_site_type_symbol
 _atom_site_label
 _atom_site_symmetry_multiplicity
 _atom_site_fract_x
 _atom_site_fract_y
 _atom_site_fract_z
 _atom_site_occupancy
  Mg  Mg0  1  0.00000000  0.00000000  0.00000000  1
  Mn  Mn1  1  0.00000000  0.50000000  0.00000000  1
  Mn  Mn2  1  0.00000000  0.50000000  0.50000000  1
  Fe  Fe3  1  0.00000000  0.00000000  0.50000000  1
  Fe  Fe4  1  0.50000000  0.00000000  0.00000000  1
  Fe  Fe5  1  0.50000000  0.00000000  0.50000000  1
  Fe  Fe6  1  0.50000000  0.50000000  0.00000000  1
  Fe  Fe7  1  0.50000000  0.50000000  0.50000000  1
  O  O8  2  0.24632747  0.48168244  0.23492202  1
  O  O9  2  0.24839663  0.00779367  0.26755715  1
  O  O10  2  0.24970187  0.49647158  0.74527370  1
  O  O11  2  0.25339075  0.00155318  0.76845614  1
