# generated using pymatgen
data_MgMn3(FeO3)2
_symmetry_space_group_name_H-M   'P 1'
_cell_length_a   3.13769230
_cell_length_b   6.30065876
_cell_length_c   6.98700051
_cell_angle_alpha   102.81919506
_cell_angle_beta   102.97570424
_cell_angle_gamma   90.00000000
_symmetry_Int_Tables_number   1
_chemical_formula_structural   MgMn3(FeO3)2
_chemical_formula_sum   'Mg1 Mn3 Fe2 O6'
_cell_volume   131.06712471
_cell_formula_units_Z   1
loop_
 _symmetry_equiv_pos_site_id
 _symmetry_equiv_pos_as_xyz
  1  'x, y, z'
loop_
 _atom_site_type_symbol
 _atom_site_label
 _atom_site_symmetry_multiplicity
 _atom_site_fract_x
 _atom_site_fract_y
 _atom_site_fract_z
 _atom_site_occupancy
  Mg  Mg0  1  0.96259296  0.66670158  0.92518592  1
  Mn  Mn1  1  0.29509951  0.83351271  0.59019902  1
  Mn  Mn2  1  0.62754948  0.49953600  0.25509896  1
  Mn  Mn3  1  0.29595469  0.33308805  0.59190938  1
  Fe  Fe4  1  0.62695092  0.99879776  0.25390183  1
  Fe  Fe5  1  0.96281127  0.16621849  0.92562253  1
  O  O6  1  0.46473727  0.91028421  0.92947453  1
  O  O7  1  0.12773465  0.24792630  0.25546929  1
  O  O8  1  0.46160965  0.42257192  0.92321929  1
  O  O9  1  0.80032699  0.58719734  0.60065397  1
  O  O10  1  0.79395917  0.08197787  0.58791835  1
  O  O11  1  0.12336614  0.74829775  0.24673227  1
