# generated using pymatgen
data_MgMn3(FeO2)4
_symmetry_space_group_name_H-M   'P 1'
_cell_length_a   4.47058792
_cell_length_b   6.31988405
_cell_length_c   7.21978603
_cell_angle_alpha   90.44680595
_cell_angle_beta   90.00000000
_cell_angle_gamma   90.00000000
_symmetry_Int_Tables_number   1
_chemical_formula_structural   MgMn3(FeO2)4
_chemical_formula_sum   'Mg1 Mn3 Fe4 O8'
_cell_volume   203.97872479
_cell_formula_units_Z   1
loop_
 _symmetry_equiv_pos_site_id
 _symmetry_equiv_pos_as_xyz
  1  'x, y, z'
loop_
 _atom_site_type_symbol
 _atom_site_label
 _atom_site_symmetry_multiplicity
 _atom_site_fract_x
 _atom_site_fract_y
 _atom_site_fract_z
 _atom_site_occupancy
  Mg  Mg0  1  0.00000000  0.62024436  0.84139112  1
  Mn  Mn1  1  0.50000000  0.28428555  0.83809964  1
  Mn  Mn2  1  0.00000000  0.61654627  0.34607342  1
  Mn  Mn3  1  0.50000000  0.78845772  0.09184633  1
  Fe  Fe4  1  0.50000000  0.28502668  0.33847663  1
  Fe  Fe5  1  0.00000000  0.11104728  0.58786548  1
  Fe  Fe6  1  0.50000000  0.78394955  0.59714160  1
  Fe  Fe7  1  0.00000000  0.11741918  0.08737232  1
  O  O8  1  0.50000000  0.11415330  0.58778759  1
  O  O9  1  0.50000000  0.62269194  0.83787076  1
  O  O10  1  0.00000000  0.78676130  0.60357966  1
  O  O11  1  0.50000000  0.61849406  0.34570674  1
  O  O12  1  0.00000000  0.28257702  0.34705509  1
  O  O13  1  0.50000000  0.12218482  0.09676103  1
  O  O14  1  0.00000000  0.29877696  0.84770038  1
  O  O15  1  0.00000000  0.78940747  0.08464461  1
