# generated using pymatgen
data_MgMn4Fe3O8
_symmetry_space_group_name_H-M   P-1
_cell_length_a   6.23428000
_cell_length_b   6.26167648
_cell_length_c   6.27016000
_cell_angle_alpha   119.30159630
_cell_angle_beta   119.40750000
_cell_angle_gamma   90.87738125
_symmetry_Int_Tables_number   2
_chemical_formula_structural   MgMn4Fe3O8
_chemical_formula_sum   'Mg1 Mn4 Fe3 O8'
_cell_volume   175.10593603
_cell_formula_units_Z   1
loop_
 _symmetry_equiv_pos_site_id
 _symmetry_equiv_pos_as_xyz
  1  'x, y, z'
  2  '-x, -y, -z'
loop_
 _atom_site_type_symbol
 _atom_site_label
 _atom_site_symmetry_multiplicity
 _atom_site_fract_x
 _atom_site_fract_y
 _atom_site_fract_z
 _atom_site_occupancy
  Mg  Mg0  1  0.00000000  0.00000000  0.00000000  1.0
  Mn  Mn1  1  0.00000000  0.00000000  0.50000000  1.0
  Mn  Mn2  1  0.00000000  0.50000000  0.00000000  1.0
  Mn  Mn3  1  0.00000000  0.50000000  0.50000000  1.0
  Mn  Mn4  1  0.50000000  0.50000000  0.50000000  1.0
  Fe  Fe5  1  0.50000000  0.00000000  0.00000000  1.0
  Fe  Fe6  1  0.50000000  0.00000000  0.50000000  1.0
  Fe  Fe7  1  0.50000000  0.50000000  0.00000000  1.0
  O  O8  2  0.24538000  0.74618000  0.49658000  1.0
  O  O9  2  0.24865000  0.76599000  0.99873000  1.0
  O  O10  2  0.25005000  0.23400000  0.48356000  1.0
  O  O11  2  0.25595000  0.25864000  0.00054000  1.0
