# generated using pymatgen
data_MgMn(Fe2O3)2
_symmetry_space_group_name_H-M   'P 1'
_cell_length_a   5.40637532
_cell_length_b   5.36536849
_cell_length_c   5.36382328
_cell_angle_alpha   71.00926522
_cell_angle_beta   60.18409583
_cell_angle_gamma   80.84652541
_symmetry_Int_Tables_number   1
_chemical_formula_structural   MgMn(Fe2O3)2
_chemical_formula_sum   'Mg1 Mn1 Fe4 O6'
_cell_volume   127.64545389
_cell_formula_units_Z   1
loop_
 _symmetry_equiv_pos_site_id
 _symmetry_equiv_pos_as_xyz
  1  'x, y, z'
loop_
 _atom_site_type_symbol
 _atom_site_label
 _atom_site_symmetry_multiplicity
 _atom_site_fract_x
 _atom_site_fract_y
 _atom_site_fract_z
 _atom_site_occupancy
  Mg  Mg0  1  0.66499559  0.21534366  0.57867589  1
  Mn  Mn1  1  0.33132047  0.21819894  0.23979020  1
  Fe  Fe2  1  0.66520674  0.71307905  0.07526869  1
  Fe  Fe3  1  0.99365375  0.21235878  0.91318125  1
  Fe  Fe4  1  0.33022938  0.71727669  0.74185830  1
  Fe  Fe5  1  0.99462299  0.71516582  0.41510830  1
  O  O6  1  0.97673028  0.47383782  0.17738837  1
  O  O7  1  0.67361723  0.98169133  0.32043825  1
  O  O8  1  0.66225121  0.45683626  0.82174651  1
  O  O9  1  0.32783829  0.45778305  0.51786015  1
  O  O10  1  0.99097405  0.96589071  0.64909183  1
  O  O11  1  0.34938335  0.95646554  0.97689542  1
