# generated using pymatgen
data_Mn(FeO2)3
_symmetry_space_group_name_H-M   P1
_cell_length_a   5.07883939
_cell_length_b   5.16154818
_cell_length_c   5.43651574
_cell_angle_alpha   62.53987764
_cell_angle_beta   89.68781087
_cell_angle_gamma   61.44004747
_symmetry_Int_Tables_number   1
_chemical_formula_structural   Mn(FeO2)3
_chemical_formula_sum   'Mn1 Fe3 O6'
_cell_volume   106.76113144
_cell_formula_units_Z   1
loop_
 _symmetry_equiv_pos_site_id
 _symmetry_equiv_pos_as_xyz
  1  'x, y, z'
loop_
 _atom_site_type_symbol
 _atom_site_label
 _atom_site_symmetry_multiplicity
 _atom_site_fract_x
 _atom_site_fract_y
 _atom_site_fract_z
 _atom_site_occupancy
  Mn  Mn0  1  0.55319273  0.59171561  0.65263125  1
  Fe  Fe1  1  0.05396797  0.58800280  0.15933381  1
  Fe  Fe2  1  0.34268965  0.01142971  0.03376150  1
  Fe  Fe3  1  0.84394453  0.01129208  0.53848906  1
  O  O4  1  0.12437433  0.12348710  0.32766867  1
  O  O5  1  0.26292744  0.48555252  0.85136013  1
  O  O6  1  0.45003441  0.48812676  0.36337579  1
  O  O7  1  0.64369165  0.79310532  0.84871568  1
  O  O8  1  0.75045990  0.79096040  0.35788532  1
  O  O9  1  0.96787864  0.07099566  0.85686954  1
