# generated using pymatgen
data_Mn(FeO2)3
_symmetry_space_group_name_H-M   'P 1'
_cell_length_a   5.07883939
_cell_length_b   5.16154818
_cell_length_c   5.50616294
_cell_angle_alpha   118.82360004
_cell_angle_beta   116.28118440
_cell_angle_gamma   61.44004747
_symmetry_Int_Tables_number   1
_chemical_formula_structural   Mn(FeO2)3
_chemical_formula_sum   'Mn1 Fe3 O6'
_cell_volume   106.76113144
_cell_formula_units_Z   1
loop_
 _symmetry_equiv_pos_site_id
 _symmetry_equiv_pos_as_xyz
  1  'x, y, z'
loop_
 _atom_site_type_symbol
 _atom_site_label
 _atom_site_symmetry_multiplicity
 _atom_site_fract_x
 _atom_site_fract_y
 _atom_site_fract_z
 _atom_site_occupancy
  Mn  Mn0  1  0.55319273  0.24434687  0.65263125  1
  Fe  Fe1  1  0.05396797  0.74733661  0.15933381  1
  Fe  Fe2  1  0.84394453  0.54978114  0.53848906  1
  Fe  Fe3  1  0.34268965  0.04519121  0.03376150  1
  O  O4  1  0.64369165  0.64182100  0.84871568  1
  O  O5  1  0.26292744  0.33691265  0.85136013  1
  O  O6  1  0.96787864  0.92786520  0.85686954  1
  O  O7  1  0.45003441  0.85150255  0.36337579  1
  O  O8  1  0.12437433  0.45115577  0.32766867  1
  O  O9  1  0.75045990  0.14884572  0.35788532  1
