# generated using pymatgen
data_Mn2FeNiO6
_symmetry_space_group_name_H-M   'P 1'
_cell_length_a   5.08673389
_cell_length_b   5.08673389
_cell_length_c   5.44204951
_cell_angle_alpha   62.13728468
_cell_angle_beta   117.86271532
_cell_angle_gamma   120.00000000
_symmetry_Int_Tables_number   1
_chemical_formula_structural   Mn2FeNiO6
_chemical_formula_sum   'Mn2 Fe1 Ni1 O6'
_cell_volume   102.66554210
_cell_formula_units_Z   1
loop_
 _symmetry_equiv_pos_site_id
 _symmetry_equiv_pos_as_xyz
  1  'x, y, z'
loop_
 _atom_site_type_symbol
 _atom_site_label
 _atom_site_symmetry_multiplicity
 _atom_site_fract_x
 _atom_site_fract_y
 _atom_site_fract_z
 _atom_site_occupancy
  Mn  Mn0  1  0.91553712  0.08446288  0.74661135  1
  Mn  Mn1  1  0.41399732  0.58600268  0.24199197  1
  Fe  Fe2  1  0.21066552  0.78933448  0.63199656  1
  Ni  Ni3  1  0.71349315  0.28650685  0.14047946  1
  O  O4  1  0.13250867  0.48095244  0.45930145  1
  O  O5  1  0.29883598  0.97162462  0.95350102  1
  O  O6  1  0.02837538  0.37371034  0.95350102  1
  O  O7  1  0.80774522  0.86749133  0.45930145  1
  O  O8  1  0.51904756  0.19225478  0.45930145  1
  O  O9  1  0.62628966  0.70116402  0.95350102  1
