# generated using pymatgen
data_Mn2FeNiO6
_symmetry_space_group_name_H-M   R3
_cell_length_a   5.08673389
_cell_length_b   5.08673389
_cell_length_c   13.74476413
_cell_angle_alpha   90.00000000
_cell_angle_beta   90.00000000
_cell_angle_gamma   120.00000000
_symmetry_Int_Tables_number   146
_chemical_formula_structural   Mn2FeNiO6
_chemical_formula_sum   'Mn6 Fe3 Ni3 O18'
_cell_volume   307.99662630
_cell_formula_units_Z   3
loop_
 _symmetry_equiv_pos_site_id
 _symmetry_equiv_pos_as_xyz
  1  'x, y, z'
  2  '-y, x-y, z'
  3  '-x+y, -x, z'
  4  'x+2/3, y+1/3, z+1/3'
  5  '-y+2/3, x-y+1/3, z+1/3'
  6  '-x+y+2/3, -x+1/3, z+1/3'
  7  'x+1/3, y+2/3, z+2/3'
  8  '-y+1/3, x-y+2/3, z+2/3'
  9  '-x+y+1/3, -x+2/3, z+2/3'
loop_
 _atom_site_type_symbol
 _atom_site_label
 _atom_site_symmetry_multiplicity
 _atom_site_fract_x
 _atom_site_fract_y
 _atom_site_fract_z
 _atom_site_occupancy
  Mn  Mn0  3  0.00000000  0.00000000  0.08446288  1
  Mn  Mn1  3  0.00000000  0.00000000  0.58600268  1
  Fe  Fe2  3  0.00000000  0.00000000  0.78933448  1
  Ni  Ni3  3  0.00000000  0.00000000  0.28650685  1
  O  O4  9  0.01202193  0.69928041  0.18023285  1
  O  O5  9  0.01899769  0.30845599  0.68216633  1
