# generated using pymatgen
data_Mn3CdO4
_symmetry_space_group_name_H-M   'P 1'
_cell_length_a   4.90053892
_cell_length_b   4.90246304
_cell_length_c   6.05738881
_cell_angle_alpha   113.87032511
_cell_angle_beta   113.81237331
_cell_angle_gamma   90.00000000
_symmetry_Int_Tables_number   1
_chemical_formula_structural   Mn3CdO4
_chemical_formula_sum   'Mn3 Cd1 O4'
_cell_volume   119.40626693
_cell_formula_units_Z   1
loop_
 _symmetry_equiv_pos_site_id
 _symmetry_equiv_pos_as_xyz
  1  'x, y, z'
loop_
 _atom_site_type_symbol
 _atom_site_label
 _atom_site_symmetry_multiplicity
 _atom_site_fract_x
 _atom_site_fract_y
 _atom_site_fract_z
 _atom_site_occupancy
  Mn  Mn0  1  0.24981016  0.75446395  0.49987539  1
  Mn  Mn1  1  0.00000000  0.00480654  0.00000000  1
  Mn  Mn2  1  0.75018984  0.25458856  0.50012461  1
  Cd  Cd3  1  0.50000000  0.50414422  0.00000000  1
  O  O4  1  0.36773569  0.89905278  0.26169834  1
  O  O5  1  0.10635612  0.11085538  0.73828518  1
  O  O6  1  0.63226431  0.63735443  0.73830166  1
  O  O7  1  0.89364388  0.37257020  0.26171482  1
