# generated using pymatgen
data_Mn3FeO4
_symmetry_space_group_name_H-M   'P 1'
_cell_length_a   4.51945243
_cell_length_b   4.53325267
_cell_length_c   5.46224110
_cell_angle_alpha   65.48303221
_cell_angle_beta   65.56255779
_cell_angle_gamma   90.00000000
_symmetry_Int_Tables_number   1
_chemical_formula_structural   Mn3FeO4
_chemical_formula_sum   'Mn3 Fe1 O4'
_cell_volume   90.68521041
_cell_formula_units_Z   1
loop_
 _symmetry_equiv_pos_site_id
 _symmetry_equiv_pos_as_xyz
  1  'x, y, z'
loop_
 _atom_site_type_symbol
 _atom_site_label
 _atom_site_symmetry_multiplicity
 _atom_site_fract_x
 _atom_site_fract_y
 _atom_site_fract_z
 _atom_site_occupancy
  Mn  Mn0  1  0.79733528  0.29733528  0.40532944  1
  Mn  Mn1  1  0.04729744  0.04729744  0.90540511  1
  Mn  Mn2  1  0.29722052  0.79722052  0.40555896  1
  Fe  Fe3  1  0.54718358  0.54718358  0.90563284  1
  O  O4  1  0.04734049  0.54734049  0.90531902  1
  O  O5  1  0.54732086  0.04732086  0.90535828  1
  O  O6  1  0.79060569  0.79060569  0.41878862  1
  O  O7  1  0.30398821  0.30398821  0.39202359  1
