# generated using pymatgen
data_Mn3Fe2O5
_symmetry_space_group_name_H-M   Cm
_cell_length_a   9.93734727
_cell_length_b   4.52560613
_cell_length_c   7.02499503
_cell_angle_alpha   90.00000000
_cell_angle_beta   134.92114556
_cell_angle_gamma   90.00000000
_symmetry_Int_Tables_number   8
_chemical_formula_structural   Mn3Fe2O5
_chemical_formula_sum   'Mn6 Fe4 O10'
_cell_volume   223.70471044
_cell_formula_units_Z   2
loop_
 _symmetry_equiv_pos_site_id
 _symmetry_equiv_pos_as_xyz
  1  'x, y, z'
  2  'x, -y, z'
  3  'x+1/2, y+1/2, z'
  4  'x+1/2, -y+1/2, z'
loop_
 _atom_site_type_symbol
 _atom_site_label
 _atom_site_symmetry_multiplicity
 _atom_site_fract_x
 _atom_site_fract_y
 _atom_site_fract_z
 _atom_site_occupancy
  Mn  Mn0  2  0.07097415  0.50000000  0.02847911  1
  Mn  Mn1  2  0.26970050  0.50000000  0.83066834  1
  Mn  Mn2  2  0.37510116  0.00000000  0.23830896  1
  Fe  Fe3  2  0.17080890  0.00000000  0.43050097  1
  Fe  Fe4  2  0.46758742  0.50000000  0.62846973  1
  O  O5  2  0.07342556  0.00000000  0.04304741  1
  O  O6  2  0.17963635  0.50000000  0.43629080  1
  O  O7  2  0.25825299  0.00000000  0.81429480  1
  O  O8  2  0.37126451  0.50000000  0.22966228  1
  O  O9  2  0.47101062  0.00000000  0.63299487  1
