# generated using pymatgen
data_Mn3Fe2O5
_symmetry_space_group_name_H-M   'P 1'
_cell_length_a   4.52560613
_cell_length_b   5.46475438
_cell_length_c   5.45966990
_cell_angle_alpha   80.19661647
_cell_angle_beta   65.51482047
_cell_angle_gamma   65.53909566
_symmetry_Int_Tables_number   1
_chemical_formula_structural   Mn3Fe2O5
_chemical_formula_sum   'Mn3 Fe2 O5'
_cell_volume   111.85235522
_cell_formula_units_Z   1
loop_
 _symmetry_equiv_pos_site_id
 _symmetry_equiv_pos_as_xyz
  1  'x, y, z'
loop_
 _atom_site_type_symbol
 _atom_site_label
 _atom_site_symmetry_multiplicity
 _atom_site_fract_x
 _atom_site_fract_y
 _atom_site_fract_z
 _atom_site_occupancy
  Mn  Mn0  1  0.86320780  0.76169104  0.51189336  1
  Mn  Mn1  1  0.45750496  0.97152089  0.11346919  1
  Mn  Mn2  1  0.06096785  0.16933166  0.70873265  1
  Fe  Fe3  1  0.66088232  0.37153027  0.30670510  1
  Fe  Fe4  1  0.25969207  0.56949903  0.91111683  1
  O  O5  1  0.96962185  0.95695259  0.10380371  1
  O  O6  1  0.55604181  0.18570520  0.70221117  1
  O  O7  1  0.75665444  0.56370920  0.92298191  1
  O  O8  1  0.35839777  0.77033772  0.51286674  1
  O  O9  1  0.16198424  0.36700513  0.30902638  1
