# generated using pymatgen
data_Mn3O5
_symmetry_space_group_name_H-M   C2/m
_cell_length_a   9.79547496
_cell_length_b   2.96931334
_cell_length_c   7.48395380
_cell_angle_alpha   90.00000000
_cell_angle_beta   119.21661291
_cell_angle_gamma   90.00000000
_symmetry_Int_Tables_number   12
_chemical_formula_structural   Mn3O5
_chemical_formula_sum   'Mn6 O10'
_cell_volume   189.98429541
_cell_formula_units_Z   2
loop_
 _symmetry_equiv_pos_site_id
 _symmetry_equiv_pos_as_xyz
  1  'x, y, z'
  2  '-x, -y, -z'
  3  '-x, y, -z'
  4  'x, -y, z'
  5  'x+1/2, y+1/2, z'
  6  '-x+1/2, -y+1/2, -z'
  7  '-x+1/2, y+1/2, -z'
  8  'x+1/2, -y+1/2, z'
loop_
 _atom_site_type_symbol
 _atom_site_label
 _atom_site_symmetry_multiplicity
 _atom_site_fract_x
 _atom_site_fract_y
 _atom_site_fract_z
 _atom_site_occupancy
  Mn  Mn0  4  0.09862133  0.50000000  0.40611322  1
  Mn  Mn1  2  0.00000000  0.00000000  0.00000000  1
  O  O2  4  0.05641225  0.50000000  0.87714488  1
  O  O3  4  0.19860440  0.00000000  0.33759291  1
  O  O4  2  0.00000000  0.00000000  0.50000000  1
