# generated using pymatgen
data_Mn3O4
_symmetry_space_group_name_H-M   'P 1'
_cell_length_a   3.03678228
_cell_length_b   5.20705463
_cell_length_c   9.70977671
_cell_angle_alpha   90.00499492
_cell_angle_beta   90.00066327
_cell_angle_gamma   106.15751110
_symmetry_Int_Tables_number   1
_chemical_formula_structural   Mn3O4
_chemical_formula_sum   'Mn6 O8'
_cell_volume   147.47300945
_cell_formula_units_Z   2
loop_
 _symmetry_equiv_pos_site_id
 _symmetry_equiv_pos_as_xyz
  1  'x, y, z'
loop_
 _atom_site_type_symbol
 _atom_site_label
 _atom_site_symmetry_multiplicity
 _atom_site_fract_x
 _atom_site_fract_y
 _atom_site_fract_z
 _atom_site_occupancy
  Mn  Mn0  1  0.60588424  0.40775481  0.16665026  1
  Mn  Mn1  1  0.33700796  0.87303937  0.30582191  1
  Mn  Mn2  1  0.60738582  0.40889654  0.80541117  1
  Mn  Mn3  1  0.07626213  0.35592191  0.48605095  1
  Mn  Mn4  1  0.86790530  0.92503989  0.98676234  1
  Mn  Mn5  1  0.33846103  0.87416529  0.66659304  1
  O  O6  1  0.69209426  0.58461688  0.34802476  1
  O  O7  1  0.97220216  0.14259903  0.73491309  1
  O  O8  1  0.69431735  0.58646263  0.62431735  1
  O  O9  1  0.97062353  0.14055579  0.23647621  1
  O  O10  1  0.42553182  0.04815871  0.48604043  1
  O  O11  1  0.25425393  0.69790179  0.84798555  1
  O  O12  1  0.51848675  0.23301654  0.98593805  1
  O  O13  1  0.25243502  0.69697439  0.12441888  1
