# generated using pymatgen
data_Mn3Zn(FeO3)2
_symmetry_space_group_name_H-M   'P 1'
_cell_length_a   5.38914750
_cell_length_b   5.44542370
_cell_length_c   5.47372318
_cell_angle_alpha   60.21241935
_cell_angle_beta   80.70846013
_cell_angle_gamma   71.00585205
_symmetry_Int_Tables_number   1
_chemical_formula_structural   Mn3Zn(FeO3)2
_chemical_formula_sum   'Mn3 Zn1 Fe2 O6'
_cell_volume   131.81843556
_cell_formula_units_Z   1
loop_
 _symmetry_equiv_pos_site_id
 _symmetry_equiv_pos_as_xyz
  1  'x, y, z'
loop_
 _atom_site_type_symbol
 _atom_site_label
 _atom_site_symmetry_multiplicity
 _atom_site_fract_x
 _atom_site_fract_y
 _atom_site_fract_z
 _atom_site_occupancy
  Mn  Mn0  1  0.06658063  0.37295846  0.17070799  1
  Mn  Mn1  1  0.06638252  0.70702343  0.50284257  1
  Mn  Mn2  1  0.06661538  0.03883117  0.83892469  1
  Zn  Zn3  1  0.56659462  0.87255743  0.17140642  1
  Fe  Fe4  1  0.56671065  0.53824768  0.83913833  1
  Fe  Fe5  1  0.56639887  0.20724951  0.50265431  1
  O  O6  1  0.81039219  0.11880143  0.17009420  1
  O  O7  1  0.32403791  0.28981792  0.84056956  1
  O  O8  1  0.80995147  0.45593903  0.50094193  1
  O  O9  1  0.80863633  0.78739366  0.83875498  1
  O  O10  1  0.32261904  0.62677100  0.17192284  1
  O  O11  1  0.32343740  0.95866176  0.50281666  1
