# generated using pymatgen
data_Mn4CdFeO6
_symmetry_space_group_name_H-M   C2/m
_cell_length_a   14.02966855
_cell_length_b   3.20613849
_cell_length_c   6.42194415
_cell_angle_alpha   90.00000000
_cell_angle_beta   103.19334584
_cell_angle_gamma   90.00000000
_symmetry_Int_Tables_number   12
_chemical_formula_structural   Mn4CdFeO6
_chemical_formula_sum   'Mn8 Cd2 Fe2 O12'
_cell_volume   281.24136322
_cell_formula_units_Z   2
loop_
 _symmetry_equiv_pos_site_id
 _symmetry_equiv_pos_as_xyz
  1  'x, y, z'
  2  '-x, -y, -z'
  3  '-x, y, -z'
  4  'x, -y, z'
  5  'x+1/2, y+1/2, z'
  6  '-x+1/2, -y+1/2, -z'
  7  '-x+1/2, y+1/2, -z'
  8  'x+1/2, -y+1/2, z'
loop_
 _atom_site_type_symbol
 _atom_site_label
 _atom_site_symmetry_multiplicity
 _atom_site_fract_x
 _atom_site_fract_y
 _atom_site_fract_z
 _atom_site_occupancy
  Mn  Mn0  4  0.16607739  0.00000000  0.82961695  1
  Mn  Mn1  4  0.16682740  0.00000000  0.33662526  1
  Cd  Cd2  2  0.00000000  0.50000000  0.00000000  1
  Fe  Fe3  2  0.00000000  0.50000000  0.50000000  1
  O  O4  4  0.00009390  0.00000000  0.27205333  1
  O  O5  4  0.16764051  0.50000000  0.58348282  1
  O  O6  4  0.17050290  0.50000000  0.08583035  1
