# generated using pymatgen
data_Mn4CdFeO6
_symmetry_space_group_name_H-M   'P 1'
_cell_length_a   3.20613849
_cell_length_b   6.42194415
_cell_length_c   7.19567446
_cell_angle_alpha   102.85601693
_cell_angle_beta   102.87250638
_cell_angle_gamma   90.00000000
_symmetry_Int_Tables_number   1
_chemical_formula_structural   Mn4CdFeO6
_chemical_formula_sum   'Mn4 Cd1 Fe1 O6'
_cell_volume   140.62068161
_cell_formula_units_Z   1
loop_
 _symmetry_equiv_pos_site_id
 _symmetry_equiv_pos_as_xyz
  1  'x, y, z'
loop_
 _atom_site_type_symbol
 _atom_site_label
 _atom_site_symmetry_multiplicity
 _atom_site_fract_x
 _atom_site_fract_y
 _atom_site_fract_z
 _atom_site_occupancy
  Mn  Mn0  1  0.83392261  0.17038305  0.66784522  1
  Mn  Mn1  1  0.16607739  0.82961695  0.33215478  1
  Mn  Mn2  1  0.83317260  0.66337474  0.66634520  1
  Mn  Mn3  1  0.16682740  0.33662526  0.33365480  1
  Cd  Cd4  1  0.50000000  0.00000000  0.00000000  1
  Fe  Fe5  1  0.50000000  0.50000000  0.00000000  1
  O  O6  1  0.32949710  0.91416965  0.65899421  1
  O  O7  1  0.66764051  0.58348282  0.33528102  1
  O  O8  1  0.67050290  0.08583035  0.34100579  1
  O  O9  1  0.99990610  0.72794667  0.99981221  1
  O  O10  1  0.33235949  0.41651718  0.66471898  1
  O  O11  1  0.00009390  0.27205333  0.00018779  1
