# generated using pymatgen
data_Mn4O5
_symmetry_space_group_name_H-M   'P 1'
_cell_length_a   2.98767097
_cell_length_b   5.44210518
_cell_length_c   7.13119689
_cell_angle_alpha   74.97651771
_cell_angle_beta   77.90818211
_cell_angle_gamma   74.06802546
_symmetry_Int_Tables_number   1
_chemical_formula_structural   Mn4O5
_chemical_formula_sum   'Mn4 O5'
_cell_volume   106.48194235
_cell_formula_units_Z   1
loop_
 _symmetry_equiv_pos_site_id
 _symmetry_equiv_pos_as_xyz
  1  'x, y, z'
loop_
 _atom_site_type_symbol
 _atom_site_label
 _atom_site_symmetry_multiplicity
 _atom_site_fract_x
 _atom_site_fract_y
 _atom_site_fract_z
 _atom_site_occupancy
  Mn  Mn0  1  0.58536734  0.70964326  0.11962206  1
  Mn  Mn1  1  0.77967206  0.13448233  0.30617355  1
  Mn  Mn2  1  0.22032794  0.86551767  0.69382645  1
  Mn  Mn3  1  0.41463266  0.29035674  0.88037794  1
  O  O4  1  0.00000000  0.00000000  0.00000000  1
  O  O5  1  0.62798111  0.11645051  0.62758728  1
  O  O6  1  0.37201889  0.88354949  0.37241272  1
  O  O7  1  0.20686527  0.39302382  0.19324564  1
  O  O8  1  0.79313473  0.60697618  0.80675436  1
