# generated using pymatgen
data_Mn5O6
_symmetry_space_group_name_H-M   'P 1'
_cell_length_a   4.63289845
_cell_length_b   5.31234704
_cell_length_c   6.10665592
_cell_angle_alpha   106.81012255
_cell_angle_beta   90.00000000
_cell_angle_gamma   115.85212942
_symmetry_Int_Tables_number   1
_chemical_formula_structural   Mn5O6
_chemical_formula_sum   'Mn5 O6'
_cell_volume   128.07893898
_cell_formula_units_Z   1
loop_
 _symmetry_equiv_pos_site_id
 _symmetry_equiv_pos_as_xyz
  1  'x, y, z'
loop_
 _atom_site_type_symbol
 _atom_site_label
 _atom_site_symmetry_multiplicity
 _atom_site_fract_x
 _atom_site_fract_y
 _atom_site_fract_z
 _atom_site_occupancy
  Mn  Mn0  1  0.67176518  0.34353035  0.76843302  1
  Mn  Mn1  1  0.34081323  0.68162646  0.60659221  1
  Mn  Mn2  1  0.01591183  0.03182365  0.94817245  1
  Mn  Mn3  1  0.35990531  0.71981062  0.12735196  1
  Mn  Mn4  1  0.69133927  0.38267853  0.28945711  1
  O  O5  1  0.83594358  0.67188716  0.08395376  1
  O  O6  1  0.51568918  0.03137837  0.94869943  1
  O  O7  1  0.51576396  0.03152792  0.44708789  1
  O  O8  1  0.19624529  0.39249058  0.81292336  1
  O  O9  1  0.19708652  0.39417304  0.26728055  1
  O  O10  1  0.83533449  0.67066898  0.62833084  1
