# generated using pymatgen
data_Mn5O6
_symmetry_space_group_name_H-M   C2/m
_cell_length_a   9.56140033
_cell_length_b   4.63289845
_cell_length_c   6.10665592
_cell_angle_alpha   90.00000000
_cell_angle_beta   108.74531675
_cell_angle_gamma   90.00000000
_symmetry_Int_Tables_number   12
_chemical_formula_structural   Mn5O6
_chemical_formula_sum   'Mn10 O12'
_cell_volume   256.15787797
_cell_formula_units_Z   2
loop_
 _symmetry_equiv_pos_site_id
 _symmetry_equiv_pos_as_xyz
  1  'x, y, z'
  2  '-x, -y, -z'
  3  '-x, y, -z'
  4  'x, -y, z'
  5  'x+1/2, y+1/2, z'
  6  '-x+1/2, -y+1/2, -z'
  7  '-x+1/2, y+1/2, -z'
  8  'x+1/2, -y+1/2, z'
loop_
 _atom_site_type_symbol
 _atom_site_label
 _atom_site_symmetry_multiplicity
 _atom_site_fract_x
 _atom_site_fract_y
 _atom_site_fract_z
 _atom_site_occupancy
  Mn  Mn0  4  0.15592993  0.00000000  0.82054053  1
  Mn  Mn1  4  0.17502201  0.00000000  0.34130028  1
  Mn  Mn2  2  0.00000000  0.50000000  0.00000000  1
  O  O3  4  0.17989166  0.50000000  0.86393873  1
  O  O4  4  0.18125128  0.50000000  0.31938806  1
  O  O5  2  0.00000000  0.00000000  0.00000000  1
  O  O6  2  0.00000000  0.00000000  0.50000000  1
