# generated using pymatgen
data_MnFe13N6
_symmetry_space_group_name_H-M   'P 1'
_cell_length_a   4.30253333
_cell_length_b   7.19713440
_cell_length_c   7.22145725
_cell_angle_alpha   60.22677607
_cell_angle_beta   90.07428710
_cell_angle_gamma   89.85732684
_symmetry_Int_Tables_number   1
_chemical_formula_structural   MnFe13N6
_chemical_formula_sum   'Mn1 Fe13 N6'
_cell_volume   194.09932926
_cell_formula_units_Z   1
loop_
 _symmetry_equiv_pos_site_id
 _symmetry_equiv_pos_as_xyz
  1  'x, y, z'
loop_
 _atom_site_type_symbol
 _atom_site_label
 _atom_site_symmetry_multiplicity
 _atom_site_fract_x
 _atom_site_fract_y
 _atom_site_fract_z
 _atom_site_occupancy
  Mn  Mn0  1  0.53822961  0.45118662  0.71358612  1
  Fe  Fe1  1  0.03769051  0.90256076  0.62626867  1
  Fe  Fe2  1  0.54234609  0.00616534  0.00238453  1
  Fe  Fe3  1  0.03716659  0.63074576  0.48544485  1
  Fe  Fe4  1  0.53281148  0.86556874  0.43415175  1
  Fe  Fe5  1  0.03490252  0.76970672  0.04810776  1
  Fe  Fe6  1  0.06269368  0.05335375  0.19494656  1
  Fe  Fe7  1  0.04204509  0.48839908  0.90319449  1
  Fe  Fe8  1  0.04422843  0.33758885  0.33948489  1
  Fe  Fe9  1  0.54631896  0.29680295  0.14548292  1
  Fe  Fe10  1  0.04656633  0.20071575  0.76851086  1
  Fe  Fe11  1  0.53255486  0.14797856  0.57400693  1
  Fe  Fe12  1  0.53529940  0.58121441  0.28853409  1
  Fe  Fe13  1  0.54787113  0.72222146  0.85542114  1
  N  N14  1  0.28780233  0.52673986  0.09736507  1
  N  N15  1  0.28573919  0.95914765  0.81164099  1
  N  N16  1  0.29027296  0.39747556  0.53073157  1
  N  N17  1  0.78489344  0.25842124  0.94111447  1
  N  N18  1  0.79014099  0.80491354  0.24453957  1
  N  N19  1  0.79074041  0.10497513  0.39433788  1
