# generated using pymatgen
data_MnFe11
_symmetry_space_group_name_H-M   'P 1'
_cell_length_a   4.01647742
_cell_length_b   4.90303851
_cell_length_c   7.36169814
_cell_angle_alpha   109.56771241
_cell_angle_beta   90.00000000
_cell_angle_gamma   90.00000000
_symmetry_Int_Tables_number   1
_chemical_formula_structural   MnFe11
_chemical_formula_sum   'Mn1 Fe11'
_cell_volume   136.60075456
_cell_formula_units_Z   1
loop_
 _symmetry_equiv_pos_site_id
 _symmetry_equiv_pos_as_xyz
  1  'x, y, z'
loop_
 _atom_site_type_symbol
 _atom_site_label
 _atom_site_symmetry_multiplicity
 _atom_site_fract_x
 _atom_site_fract_y
 _atom_site_fract_z
 _atom_site_occupancy
  Mn  Mn0  1  0.50000000  0.40738074  0.98283668  1
  Fe  Fe1  1  0.50000000  0.90788583  0.65000284  1
  Fe  Fe2  1  0.00000000  0.15762117  0.14909079  1
  Fe  Fe3  1  0.50000000  0.40804009  0.65197254  1
  Fe  Fe4  1  0.00000000  0.15759754  0.48236879  1
  Fe  Fe5  1  0.00000000  0.65560660  0.14727439  1
  Fe  Fe6  1  0.50000000  0.40690413  0.31375670  1
  Fe  Fe7  1  0.00000000  0.15937532  0.81855880  1
  Fe  Fe8  1  0.00000000  0.65715067  0.48346582  1
  Fe  Fe9  1  0.00000000  0.65731865  0.81642810  1
  Fe  Fe10  1  0.50000000  0.90776793  0.98281189  1
  Fe  Fe11  1  0.50000000  0.90701093  0.31563146  1
