# generated using pymatgen
data_MnFe8O9
_symmetry_space_group_name_H-M   Cm
_cell_length_a   13.29672269
_cell_length_b   4.50253817
_cell_length_c   6.82404405
_cell_angle_alpha   90.00000000
_cell_angle_beta   108.34637359
_cell_angle_gamma   90.00000000
_symmetry_Int_Tables_number   8
_chemical_formula_structural   MnFe8O9
_chemical_formula_sum   'Mn2 Fe16 O18'
_cell_volume   387.78259340
_cell_formula_units_Z   2
loop_
 _symmetry_equiv_pos_site_id
 _symmetry_equiv_pos_as_xyz
  1  'x, y, z'
  2  'x, -y, z'
  3  'x+1/2, y+1/2, z'
  4  'x+1/2, -y+1/2, z'
loop_
 _atom_site_type_symbol
 _atom_site_label
 _atom_site_symmetry_multiplicity
 _atom_site_fract_x
 _atom_site_fract_y
 _atom_site_fract_z
 _atom_site_occupancy
  Mn  Mn0  2  0.42846672  0.50000000  0.64143877  1
  Fe  Fe1  2  0.03885815  0.00000000  0.30404245  1
  Fe  Fe2  2  0.09345823  0.50000000  0.63985192  1
  Fe  Fe3  2  0.15048579  0.00000000  0.97397266  1
  Fe  Fe4  2  0.20426172  0.50000000  0.30445264  1
  Fe  Fe5  2  0.25896127  0.00000000  0.63494354  1
  Fe  Fe6  2  0.31535342  0.50000000  0.97197556  1
  Fe  Fe7  2  0.37161135  0.00000000  0.30558105  1
  Fe  Fe8  2  0.48174413  0.00000000  0.97270731  1
  O  O9  2  0.04485154  0.50000000  0.31583637  1
  O  O10  2  0.09425658  0.00000000  0.63726926  1
  O  O11  2  0.14158838  0.50000000  0.96244407  1
  O  O12  2  0.20499168  0.00000000  0.29997909  1
  O  O13  2  0.26223246  0.50000000  0.64844641  1
  O  O14  2  0.32106539  0.00000000  0.97629517  1
  O  O15  2  0.36428403  0.50000000  0.29510041  1
  O  O16  2  0.42407129  0.00000000  0.62909845  1
  O  O17  2  0.48471460  0.50000000  0.98154974  1
