# generated using pymatgen
data_MnFe7O8
_symmetry_space_group_name_H-M   P-1
_cell_length_a   5.38367969
_cell_length_b   5.40422236
_cell_length_c   6.25268940
_cell_angle_alpha   90.66216211
_cell_angle_beta   90.59345244
_cell_angle_gamma   109.04537050
_symmetry_Int_Tables_number   2
_chemical_formula_structural   MnFe7O8
_chemical_formula_sum   'Mn1 Fe7 O8'
_cell_volume   171.93062790
_cell_formula_units_Z   1
loop_
 _symmetry_equiv_pos_site_id
 _symmetry_equiv_pos_as_xyz
  1  'x, y, z'
  2  '-x, -y, -z'
loop_
 _atom_site_type_symbol
 _atom_site_label
 _atom_site_symmetry_multiplicity
 _atom_site_fract_x
 _atom_site_fract_y
 _atom_site_fract_z
 _atom_site_occupancy
  Mn  Mn0  1  0.50000000  0.50000000  0.00000000  1
  Fe  Fe1  2  0.00134741  0.49762356  0.24909151  1
  Fe  Fe2  2  0.49527547  0.00107221  0.25078478  1
  Fe  Fe3  1  0.00000000  0.00000000  0.00000000  1
  Fe  Fe4  1  0.00000000  0.00000000  0.50000000  1
  Fe  Fe5  1  0.50000000  0.50000000  0.50000000  1
  O  O6  2  0.24121005  0.74009164  0.98910275  1
  O  O7  2  0.24681154  0.22576293  0.74657065  1
  O  O8  2  0.24746060  0.73253710  0.48968275  1
  O  O9  2  0.26061348  0.24119044  0.24905835  1
