# generated using pymatgen
data_MnFe8O9
_symmetry_space_group_name_H-M   'P 1'
_cell_length_a   4.50253817
_cell_length_b   6.82404405
_cell_length_c   7.01383396
_cell_angle_alpha   72.75635287
_cell_angle_beta   71.42178669
_cell_angle_gamma   90.34340032
_symmetry_Int_Tables_number   1
_chemical_formula_structural   MnFe8O9
_chemical_formula_sum   'Mn1 Fe8 O9'
_cell_volume   193.88777279
_cell_formula_units_Z   1
loop_
 _symmetry_equiv_pos_site_id
 _symmetry_equiv_pos_as_xyz
  1  'x, y, z'
loop_
 _atom_site_type_symbol
 _atom_site_label
 _atom_site_symmetry_multiplicity
 _atom_site_fract_x
 _atom_site_fract_y
 _atom_site_fract_z
 _atom_site_occupancy
  Mn  Mn0  1  0.86498253  0.64143877  0.20655075  1
  Fe  Fe1  1  0.52712461  0.63985192  0.87656773  1
  Fe  Fe2  1  0.74638212  0.97197556  0.43277736  1
  Fe  Fe3  1  0.08566616  0.97397266  0.76251261  1
  Fe  Fe4  1  0.41728310  0.97270731  0.09999593  1
  Fe  Fe5  1  0.64055553  0.30445264  0.65496075  1
  Fe  Fe6  1  0.30469326  0.30558105  0.32026149  1
  Fe  Fe7  1  0.19123301  0.63494354  0.54556165  1
  Fe  Fe8  1  0.97271794  0.30404245  0.98576790  1
  O  O9  1  0.25195557  0.97629517  0.42135341  1
  O  O10  1  0.91964570  0.98154974  0.09405498  1
  O  O11  1  0.36115532  0.62909845  0.21534162  1
  O  O12  1  0.69707532  0.64844641  0.53901928  1
  O  O13  1  0.79844412  0.29510041  0.33491614  1
  O  O14  1  0.02768881  0.63726926  0.87497103  1
  O  O15  1  0.14205531  0.29997909  0.65350083  1
  O  O16  1  0.47940728  0.31583637  0.97378112  1
  O  O17  1  0.57610973  0.96244407  0.78030744  1
