# generated using pymatgen
data_MnFe9O10
_symmetry_space_group_name_H-M   P2/m
_cell_length_a   7.67330935
_cell_length_b   3.15696559
_cell_length_c   9.15550649
_cell_angle_alpha   90.00000000
_cell_angle_beta   104.27879536
_cell_angle_gamma   90.00000000
_symmetry_Int_Tables_number   10
_chemical_formula_structural   MnFe9O10
_chemical_formula_sum   'Mn1 Fe9 O10'
_cell_volume   214.93477914
_cell_formula_units_Z   1
loop_
 _symmetry_equiv_pos_site_id
 _symmetry_equiv_pos_as_xyz
  1  'x, y, z'
  2  '-x, -y, -z'
  3  '-x, y, -z'
  4  'x, -y, z'
loop_
 _atom_site_type_symbol
 _atom_site_label
 _atom_site_symmetry_multiplicity
 _atom_site_fract_x
 _atom_site_fract_y
 _atom_site_fract_z
 _atom_site_occupancy
  Mn  Mn0  1  0.50000000  0.50000000  0.00000000  1
  Fe  Fe1  2  0.10132346  0.50000000  0.79963986  1
  Fe  Fe2  2  0.19575581  0.00000000  0.09850289  1
  Fe  Fe3  2  0.29768202  0.50000000  0.39957512  1
  Fe  Fe4  2  0.39888687  0.00000000  0.69675536  1
  Fe  Fe5  1  0.00000000  0.00000000  0.50000000  1
  O  O6  2  0.09728563  0.00000000  0.29792592  1
  O  O7  2  0.20183807  0.50000000  0.59766750  1
  O  O8  2  0.29464579  0.00000000  0.89708162  1
  O  O9  2  0.39361860  0.50000000  0.20256870  1
  O  O10  1  0.00000000  0.50000000  0.00000000  1
  O  O11  1  0.50000000  0.00000000  0.50000000  1
