# generated using pymatgen
data_MnFe11
_symmetry_space_group_name_H-M   P2/m
_cell_length_a   4.90303851
_cell_length_b   4.01647742
_cell_length_c   7.35232431
_cell_angle_alpha   90.00000000
_cell_angle_beta   109.36115245
_cell_angle_gamma   90.00000000
_symmetry_Int_Tables_number   10
_chemical_formula_structural   MnFe11
_chemical_formula_sum   'Mn1 Fe11'
_cell_volume   136.60075456
_cell_formula_units_Z   1
loop_
 _symmetry_equiv_pos_site_id
 _symmetry_equiv_pos_as_xyz
  1  'x, y, z'
  2  '-x, -y, -z'
  3  '-x, y, -z'
  4  'x, -y, z'
loop_
 _atom_site_type_symbol
 _atom_site_label
 _atom_site_symmetry_multiplicity
 _atom_site_fract_x
 _atom_site_fract_y
 _atom_site_fract_z
 _atom_site_occupancy
  Mn  Mn0  1  0.50000000  0.50000000  0.50000000  1
  Fe  Fe1  2  0.08398632  0.00000000  0.33374589  1
  Fe  Fe2  2  0.16847650  0.50000000  0.16913586  1
  Fe  Fe3  2  0.24931531  0.00000000  0.99953211  1
  Fe  Fe4  2  0.33333894  0.50000000  0.83283384  1
  Fe  Fe5  2  0.41621184  0.00000000  0.66443771  1
  Fe  Fe6  1  0.00000000  0.50000000  0.50000000  1
