# generated using pymatgen
data_MnFe13N6
_symmetry_space_group_name_H-M   P1
_cell_length_a   4.30253333
_cell_length_b   7.19713440
_cell_length_c   7.22145725
_cell_angle_alpha   119.77322393
_cell_angle_beta   90.07428710
_cell_angle_gamma   90.14267316
_symmetry_Int_Tables_number   1
_chemical_formula_structural   MnFe13N6
_chemical_formula_sum   'Mn1 Fe13 N6'
_cell_volume   194.09932926
_cell_formula_units_Z   1
loop_
 _symmetry_equiv_pos_site_id
 _symmetry_equiv_pos_as_xyz
  1  'x, y, z'
loop_
 _atom_site_type_symbol
 _atom_site_label
 _atom_site_symmetry_multiplicity
 _atom_site_fract_x
 _atom_site_fract_y
 _atom_site_fract_z
 _atom_site_occupancy
  Mn  Mn0  1  0.46177039  0.45118662  0.28641388  1
  Fe  Fe1  1  0.45212887  0.72222146  0.14457886  1
  Fe  Fe2  1  0.45368104  0.29680295  0.85451708  1
  Fe  Fe3  1  0.45765391  0.00616534  0.99761547  1
  Fe  Fe4  1  0.46470060  0.58121441  0.71146591  1
  Fe  Fe5  1  0.46718852  0.86556874  0.56584825  1
  Fe  Fe6  1  0.46744514  0.14797856  0.42599307  1
  Fe  Fe7  1  0.93730632  0.05335375  0.80505344  1
  Fe  Fe8  1  0.95343367  0.20071575  0.23148914  1
  Fe  Fe9  1  0.95577157  0.33758885  0.66051511  1
  Fe  Fe10  1  0.95795491  0.48839908  0.09680551  1
  Fe  Fe11  1  0.96230949  0.90256076  0.37373133  1
  Fe  Fe12  1  0.96283341  0.63074576  0.51455515  1
  Fe  Fe13  1  0.96509748  0.76970672  0.95189224  1
  N  N14  1  0.20925959  0.10497513  0.60566212  1
  N  N15  1  0.20985901  0.80491354  0.75546043  1
  N  N16  1  0.21510656  0.25842124  0.05888553  1
  N  N17  1  0.70972704  0.39747556  0.46926843  1
  N  N18  1  0.71219767  0.52673986  0.90263493  1
  N  N19  1  0.71426081  0.95914765  0.18835901  1
