# generated using pymatgen
data_ZnFe3O4
_symmetry_space_group_name_H-M   'P 1'
_cell_length_a   4.40659154
_cell_length_b   4.48049381
_cell_length_c   5.30533879
_cell_angle_alpha   65.02247351
_cell_angle_beta   65.46192534
_cell_angle_gamma   90.00000000
_symmetry_Int_Tables_number   1
_chemical_formula_structural   ZnFe3O4
_chemical_formula_sum   'Zn1 Fe3 O4'
_cell_volume   84.39920845
_cell_formula_units_Z   1
loop_
 _symmetry_equiv_pos_site_id
 _symmetry_equiv_pos_as_xyz
  1  'x, y, z'
loop_
 _atom_site_type_symbol
 _atom_site_label
 _atom_site_symmetry_multiplicity
 _atom_site_fract_x
 _atom_site_fract_y
 _atom_site_fract_z
 _atom_site_occupancy
  Zn  Zn0  1  0.50000000  0.50000000  0.00000000  1
  Fe  Fe1  1  0.24693731  0.74693731  0.50612538  1
  Fe  Fe2  1  0.00000000  0.00000000  0.00000000  1
  Fe  Fe3  1  0.75306269  0.25306269  0.49387462  1
  O  O4  1  0.00000000  0.50000000  0.00000000  1
  O  O5  1  0.50000000  0.00000000  0.00000000  1
  O  O6  1  0.25513575  0.25513575  0.48972850  1
  O  O7  1  0.74486425  0.74486425  0.51027150  1
