# generated using pymatgen
data_CsCu2HgI6
_symmetry_space_group_name_H-M   'P 1'
_cell_length_a   9.06604000
_cell_length_b   10.88570000
_cell_length_c   10.92940000
_cell_angle_alpha   79.87990000
_cell_angle_beta   66.15590000
_cell_angle_gamma   66.29790000
_symmetry_Int_Tables_number   1
_chemical_formula_structural   CsCu2HgI6
_chemical_formula_sum   'Cs2 Cu4 Hg2 I12'
_cell_volume   903.23159401
_cell_formula_units_Z   2
loop_
 _symmetry_equiv_pos_site_id
 _symmetry_equiv_pos_as_xyz
  1  'x, y, z'
loop_
 _atom_site_type_symbol
 _atom_site_label
 _atom_site_symmetry_multiplicity
 _atom_site_fract_x
 _atom_site_fract_y
 _atom_site_fract_z
 _atom_site_occupancy
  Cs  Cs1  1  0.32688000  0.35961000  0.32391000  1.0
  Cs  Cs2  1  0.82708000  0.95356000  0.73084000  1.0
  Cu  Cu1  1  0.44843000  0.80117000  0.28573000  1.0
  Cu  Cu2  1  0.94909000  0.91548000  0.17158000  1.0
  Cu  Cu3  1  0.70355000  0.51222000  0.76981000  1.0
  Cu  Cu4  1  0.20288000  0.39727000  0.88426000  1.0
  Hg  Hg1  1  0.32838000  0.97870000  0.70442000  1.0
  Hg  Hg2  1  0.82634000  0.33509000  0.34970000  1.0
  I  I1  1  0.01929000  0.04391000  0.93281000  1.0
  I  I2  1  0.39980000  0.22651000  0.69331000  1.0
  I  I3  1  0.74478000  0.81931000  0.13627000  1.0
  I  I4  1  0.40650000  0.49468000  0.91839000  1.0
  I  I5  1  0.75303000  0.08814000  0.36064000  1.0
  I  I6  1  0.90719000  0.54690000  0.86619000  1.0
  I  I7  1  0.90023000  0.32298000  0.59618000  1.0
  I  I8  1  0.51677000  0.56238000  0.41776000  1.0
  I  I9  1  0.63747000  0.75028000  0.63795000  1.0
  I  I10  1  0.24425000  0.76538000  0.19103000  1.0
  I  I11  1  0.13625000  0.26677000  0.12234000  1.0
  I  I12  1  0.25375000  0.99045000  0.45884000  1.0
