# generated using pymatgen
data_CsCu2HgI6
_symmetry_space_group_name_H-M   C2/c
_cell_length_a   16.72604702
_cell_length_b   14.00499371
_cell_length_c   9.06604000
_cell_angle_alpha   90.00000000
_cell_angle_beta   121.72008581
_cell_angle_gamma   90.00000000
_symmetry_Int_Tables_number   15
_chemical_formula_structural   CsCu2HgI6
_chemical_formula_sum   'Cs4 Cu8 Hg4 I24'
_cell_volume   1806.47912472
_cell_formula_units_Z   4
loop_
 _symmetry_equiv_pos_site_id
 _symmetry_equiv_pos_as_xyz
  1  'x, y, z'
  2  '-x, -y, -z'
  3  '-x, y, -z+1/2'
  4  'x, -y, z+1/2'
  5  'x+1/2, y+1/2, z'
  6  '-x+1/2, -y+1/2, -z'
  7  '-x+1/2, y+1/2, -z+1/2'
  8  'x+1/2, -y+1/2, z+1/2'
loop_
 _atom_site_type_symbol
 _atom_site_label
 _atom_site_symmetry_multiplicity
 _atom_site_fract_x
 _atom_site_fract_y
 _atom_site_fract_z
 _atom_site_occupancy
  Cs  Cs0  4  0.00000000  0.29653500  0.75000000  1.0
  Cu  Cu1  8  0.20169000  0.05666500  0.62845000  1.0
  Hg  Hg2  4  0.00000000  0.32275500  0.25000000  1.0
  I  I3  8  0.11815000  0.45221500  0.17708000  1.0
  I  I4  8  0.13603000  0.02713500  0.83210000  1.0
  I  I5  8  0.14660000  0.24116500  0.55759000  1.0
