# generated using pymatgen
data_CsMgIn9
_symmetry_space_group_name_H-M   'P 1'
_cell_length_a   5.00542000
_cell_length_b   8.78653000
_cell_length_c   8.80040000
_cell_angle_alpha   60.15540000
_cell_angle_beta   90.01270000
_cell_angle_gamma   89.97780000
_symmetry_Int_Tables_number   1
_chemical_formula_structural   CsMgIn9
_chemical_formula_sum   'Cs1 Mg1 In9'
_cell_volume   335.71351295
_cell_formula_units_Z   1
loop_
 _symmetry_equiv_pos_site_id
 _symmetry_equiv_pos_as_xyz
  1  'x, y, z'
loop_
 _atom_site_type_symbol
 _atom_site_label
 _atom_site_symmetry_multiplicity
 _atom_site_fract_x
 _atom_site_fract_y
 _atom_site_fract_z
 _atom_site_occupancy
  Cs  Cs1  1  0.98903000  0.94892000  0.87959000  1.0
  Mg  Mg1  1  0.98832000  0.28139000  0.21320000  1.0
  In  In1  1  0.98905000  0.48088000  0.41233000  1.0
  In  In2  1  0.48887000  0.35850000  0.67484000  1.0
  In  In3  1  0.98924000  0.48033000  0.81495000  1.0
  In  In4  1  0.48899000  0.15601000  0.08624000  1.0
  In  In5  1  0.48914000  0.15505000  0.46622000  1.0
  In  In6  1  0.48916000  0.74306000  0.67420000  1.0
  In  In7  1  0.48873000  0.74386000  0.28981000  1.0
  In  In8  1  0.98917000  0.88347000  0.41182000  1.0
  In  In9  1  0.48870000  0.53557000  0.08594000  1.0
