# generated using pymatgen
data_CsMn3I8
_symmetry_space_group_name_H-M   'P 1'
_cell_length_a   7.44306000
_cell_length_b   7.44306000
_cell_length_c   10.47280000
_cell_angle_alpha   90.00000000
_cell_angle_beta   90.00000000
_cell_angle_gamma   120.00000000
_symmetry_Int_Tables_number   1
_chemical_formula_structural   CsMn3I8
_chemical_formula_sum   'Cs1 Mn3 I8'
_cell_volume   502.45420069
_cell_formula_units_Z   1
loop_
 _symmetry_equiv_pos_site_id
 _symmetry_equiv_pos_as_xyz
  1  'x, y, z'
loop_
 _atom_site_type_symbol
 _atom_site_label
 _atom_site_symmetry_multiplicity
 _atom_site_fract_x
 _atom_site_fract_y
 _atom_site_fract_z
 _atom_site_occupancy
  Cs  Cs1  1  0.00000000  0.00000000  0.75320000  1.0
  Mn  Mn1  1  0.66666667  0.33333333  0.48503000  1.0
  Mn  Mn2  1  0.33333333  0.66666667  0.02052000  1.0
  Mn  Mn3  1  0.00000000  0.00000000  0.25297000  1.0
  I  I1  1  0.31447000  0.00539000  0.09249000  1.0
  I  I2  1  0.66666667  0.33333333  0.73376000  1.0
  I  I3  1  0.99461000  0.30908000  0.09249000  1.0
  I  I4  1  0.00540000  0.69140000  0.41400000  1.0
  I  I5  1  0.69092000  0.68553000  0.09249000  1.0
  I  I6  1  0.68600000  0.99460000  0.41400000  1.0
  I  I7  1  0.30860000  0.31400000  0.41400000  1.0
  I  I8  1  0.33333333  0.66666667  0.77170000  1.0
