# generated using pymatgen
data_Cu4P3O11
_symmetry_space_group_name_H-M   P1
_cell_length_a   5.26854000
_cell_length_b   5.28207000
_cell_length_c   8.77552000
_cell_angle_alpha   99.80130000
_cell_angle_beta   96.70850000
_cell_angle_gamma   98.05290000
_symmetry_Int_Tables_number   1
_chemical_formula_structural   Cu4P3O11
_chemical_formula_sum   'Cu4 P3 O11'
_cell_volume   235.78537133
_cell_formula_units_Z   1
loop_
 _symmetry_equiv_pos_site_id
 _symmetry_equiv_pos_as_xyz
  1  'x, y, z'
loop_
 _atom_site_type_symbol
 _atom_site_label
 _atom_site_symmetry_multiplicity
 _atom_site_fract_x
 _atom_site_fract_y
 _atom_site_fract_z
 _atom_site_occupancy
  Cu  Cu0  1  0.04745000  0.27378000  0.86779000  1.0
  Cu  Cu1  1  0.13368000  0.62487000  0.21010000  1.0
  Cu  Cu2  1  0.16030000  0.12099000  0.53503000  1.0
  Cu  Cu3  1  0.79894000  0.59282000  0.68970000  1.0
  P  P4  1  0.35166000  0.80300000  0.87513000  1.0
  P  P5  1  0.60018000  0.05671000  0.43334000  1.0
  P  P6  1  0.76036000  0.06887000  0.12698000  1.0
  O  O7  1  0.04712000  0.37441000  0.67417000  1.0
  O  O8  1  0.09246000  0.89148000  0.81727000  1.0
  O  O9  1  0.30771000  0.58235000  0.96777000  1.0
  O  O10  1  0.33099000  0.88121000  0.38103000  1.0
  O  O11  1  0.49654000  0.05346000  0.01315000  1.0
  O  O12  1  0.52738000  0.78591000  0.75030000  1.0
  O  O13  1  0.53618000  0.28317000  0.55393000  1.0
  O  O14  1  0.68489000  0.20005000  0.29271000  1.0
  O  O15  1  0.81420000  0.90850000  0.48090000  1.0
  O  O16  1  0.83740000  0.80896000  0.13042000  1.0
  O  O17  1  0.96007000  0.28132000  0.08858000  1.0
