# generated using pymatgen
data_Cu4P3O11
_symmetry_space_group_name_H-M   'P 1'
_cell_length_a   5.28207000
_cell_length_b   5.26854000
_cell_length_c   8.77552000
_cell_angle_alpha   96.70850000
_cell_angle_beta   99.80130000
_cell_angle_gamma   98.05290000
_symmetry_Int_Tables_number   1
_chemical_formula_structural   Cu4P3O11
_chemical_formula_sum   'Cu4 P3 O11'
_cell_volume   235.78537133
_cell_formula_units_Z   1
loop_
 _symmetry_equiv_pos_site_id
 _symmetry_equiv_pos_as_xyz
  1  'x, y, z'
loop_
 _atom_site_type_symbol
 _atom_site_label
 _atom_site_symmetry_multiplicity
 _atom_site_fract_x
 _atom_site_fract_y
 _atom_site_fract_z
 _atom_site_occupancy
  Cu  Cu1  1  0.72622000  0.95255000  0.13221000  1.0
  Cu  Cu2  1  0.37513000  0.86632000  0.78990000  1.0
  Cu  Cu3  1  0.40718000  0.20106000  0.31030000  1.0
  Cu  Cu4  1  0.87901000  0.83970000  0.46497000  1.0
  P  P1  1  0.93113000  0.23964000  0.87302000  1.0
  P  P2  1  0.94329000  0.39982000  0.56666000  1.0
  P  P3  1  0.19700000  0.64834000  0.12487000  1.0
  O  O1  1  0.09150000  0.18580000  0.51910000  1.0
  O  O2  1  0.21409000  0.47262000  0.24970000  1.0
  O  O3  1  0.62559000  0.95288000  0.32583000  1.0
  O  O4  1  0.19104000  0.16260000  0.86958000  1.0
  O  O5  1  0.71868000  0.03993000  0.91142000  1.0
  O  O6  1  0.79995000  0.31511000  0.70729000  1.0
  O  O7  1  0.94654000  0.50346000  0.98685000  1.0
  O  O8  1  0.11879000  0.66901000  0.61897000  1.0
  O  O9  1  0.10852000  0.90754000  0.18273000  1.0
  O  O10  1  0.41765000  0.69229000  0.03223000  1.0
  O  O11  1  0.71683000  0.46382000  0.44607000  1.0
