# generated using pymatgen
data_FeIrOsRh
_symmetry_space_group_name_H-M   'P 1'
_cell_length_a   3.79844000
_cell_length_b   3.79844000
_cell_length_c   4.67183000
_cell_angle_alpha   113.98700000
_cell_angle_beta   113.98700000
_cell_angle_gamma   90.00000000
_symmetry_Int_Tables_number   1
_chemical_formula_structural   FeIrOsRh
_chemical_formula_sum   'Fe1 Ir1 Os1 Rh1'
_cell_volume   55.15214503
_cell_formula_units_Z   1
loop_
 _symmetry_equiv_pos_site_id
 _symmetry_equiv_pos_as_xyz
  1  'x, y, z'
loop_
 _atom_site_type_symbol
 _atom_site_label
 _atom_site_symmetry_multiplicity
 _atom_site_fract_x
 _atom_site_fract_y
 _atom_site_fract_z
 _atom_site_occupancy
  Fe  Fe1  1  0.75000000  0.25000000  0.50000000  1.0
  Ir  Ir1  1  0.00000000  0.00000000  0.00000000  1.0
  Os  Os1  1  0.25000000  0.75000000  0.50000000  1.0
  Rh  Rh1  1  0.50000000  0.50000000  0.00000000  1.0
