# generated using pymatgen
data_Rb2Tl2TeSe4
_symmetry_space_group_name_H-M   'P 1'
_cell_length_a   6.05341000
_cell_length_b   7.31134000
_cell_length_c   8.46401000
_cell_angle_alpha   112.22600000
_cell_angle_beta   96.82050000
_cell_angle_gamma   96.48550000
_symmetry_Int_Tables_number   1
_chemical_formula_structural   Rb2Tl2TeSe4
_chemical_formula_sum   'Rb2 Tl2 Te1 Se4'
_cell_volume   339.20013264
_cell_formula_units_Z   1
loop_
 _symmetry_equiv_pos_site_id
 _symmetry_equiv_pos_as_xyz
  1  'x, y, z'
loop_
 _atom_site_type_symbol
 _atom_site_label
 _atom_site_symmetry_multiplicity
 _atom_site_fract_x
 _atom_site_fract_y
 _atom_site_fract_z
 _atom_site_occupancy
  Rb  Rb1  1  0.37717000  0.90874000  0.77316000  1.0
  Rb  Rb2  1  0.59265000  0.64238000  0.26848000  1.0
  Tl  Tl1  1  0.75532000  0.43902000  0.62362000  1.0
  Tl  Tl2  1  0.21301000  0.11020000  0.41767000  1.0
  Te  Te1  1  0.98517000  0.27479000  0.02085000  1.0
  Se  Se1  1  0.87426000  0.90830000  0.06635000  1.0
  Se  Se2  1  0.87411000  0.06524000  0.65112000  1.0
  Se  Se3  1  0.09493000  0.48407000  0.38926000  1.0
  Se  Se4  1  0.09658000  0.64022000  0.97341000  1.0
