# generated using pymatgen
data_SrCaSiPt
_symmetry_space_group_name_H-M   Amm2
_cell_length_a   4.35906000
_cell_length_b   4.70308000
_cell_length_c   10.36024539
_cell_angle_alpha   90.00000000
_cell_angle_beta   90.00000000
_cell_angle_gamma   90.00000000
_symmetry_Int_Tables_number   38
_chemical_formula_structural   SrCaSiPt
_chemical_formula_sum   'Sr2 Ca2 Si2 Pt2'
_cell_volume   212.39547267
_cell_formula_units_Z   2
loop_
 _symmetry_equiv_pos_site_id
 _symmetry_equiv_pos_as_xyz
  1  'x, y, z'
  2  '-x, -y, z'
  3  '-x, y, z'
  4  'x, -y, z'
  5  'x, y+1/2, z+1/2'
  6  '-x, -y+1/2, z+1/2'
  7  '-x, y+1/2, z+1/2'
  8  'x, -y+1/2, z+1/2'
loop_
 _atom_site_type_symbol
 _atom_site_label
 _atom_site_symmetry_multiplicity
 _atom_site_fract_x
 _atom_site_fract_y
 _atom_site_fract_z
 _atom_site_occupancy
  Sr  Sr0  2  0.50000000  0.00000000  0.64598000  1.0
  Ca  Ca1  2  0.00000000  0.00000000  0.93545000  1.0
  Si  Si2  2  0.00000000  0.00000000  0.25261000  1.0
  Pt  Pt3  2  0.50000000  0.00000000  0.34797000  1.0
