# generated using pymatgen
data_Zn2Sn3
_symmetry_space_group_name_H-M   'P 1'
_cell_length_a   4.56841000
_cell_length_b   4.56812000
_cell_length_c   13.46300000
_cell_angle_alpha   89.99080000
_cell_angle_beta   90.00000000
_cell_angle_gamma   120.00200000
_symmetry_Int_Tables_number   1
_chemical_formula_structural   Zn2Sn3
_chemical_formula_sum   'Zn4 Sn6'
_cell_volume   243.31354963
_cell_formula_units_Z   2
loop_
 _symmetry_equiv_pos_site_id
 _symmetry_equiv_pos_as_xyz
  1  'x, y, z'
loop_
 _atom_site_type_symbol
 _atom_site_label
 _atom_site_symmetry_multiplicity
 _atom_site_fract_x
 _atom_site_fract_y
 _atom_site_fract_z
 _atom_site_occupancy
  Zn  Zn1  1  0.83366000  0.66731000  0.84887000  1.0
  Zn  Zn2  1  0.16634000  0.33269000  0.15113000  1.0
  Zn  Zn3  1  0.16626000  0.33252000  0.34863000  1.0
  Zn  Zn4  1  0.83374000  0.66748000  0.65137000  1.0
  Sn  Sn1  1  0.16694000  0.33388000  0.56951000  1.0
  Sn  Sn2  1  0.49966000  0.99931000  0.24997000  1.0
  Sn  Sn3  1  0.83310000  0.66620000  0.06997000  1.0
  Sn  Sn4  1  0.83306000  0.66612000  0.43049000  1.0
  Sn  Sn5  1  0.16690000  0.33380000  0.93003000  1.0
  Sn  Sn6  1  0.50034000  0.00069000  0.75003000  1.0
