# generated using pymatgen
data_LaMoO4
_symmetry_space_group_name_H-M   C2/c
_cell_length_a   7.21930911
_cell_length_b   11.64043721
_cell_length_c   5.17965982
_cell_angle_alpha   90.00000000
_cell_angle_beta   128.79723386
_cell_angle_gamma   90.00000000
_symmetry_Int_Tables_number   15
_chemical_formula_structural   LaMoO4
_chemical_formula_sum   'La4 Mo4 O16'
_cell_volume   339.24140891
_cell_formula_units_Z   4
loop_
 _symmetry_equiv_pos_site_id
 _symmetry_equiv_pos_as_xyz
  1  'x, y, z'
  2  '-x, -y, -z'
  3  '-x, y, -z+1/2'
  4  'x, -y, z+1/2'
  5  'x+1/2, y+1/2, z'
  6  '-x+1/2, -y+1/2, -z'
  7  '-x+1/2, y+1/2, -z+1/2'
  8  'x+1/2, -y+1/2, z+1/2'
loop_
 _atom_site_type_symbol
 _atom_site_label
 _atom_site_symmetry_multiplicity
 _atom_site_fract_x
 _atom_site_fract_y
 _atom_site_fract_z
 _atom_site_occupancy
  La  La0  4  0.00000000  0.36446377  0.75000000  1.0
  Mo  Mo1  4  0.00000000  0.09236603  0.25000000  1.0
  O  O2  8  0.14312475  0.20153912  0.15556115  1.0
  O  O3  8  0.22996554  0.03255190  0.69229615  1.0
