# generated using pymatgen
data_Mn3NiO6
_symmetry_space_group_name_H-M   R3
_cell_length_a   5.05431338
_cell_length_b   5.05431338
_cell_length_c   13.96733855
_cell_angle_alpha   90.00000000
_cell_angle_beta   90.00000000
_cell_angle_gamma   120.00000000
_symmetry_Int_Tables_number   146
_chemical_formula_structural   Mn3NiO6
_chemical_formula_sum   'Mn9 Ni3 O18'
_cell_volume   309.00721689
_cell_formula_units_Z   3
loop_
 _symmetry_equiv_pos_site_id
 _symmetry_equiv_pos_as_xyz
  1  'x, y, z'
  2  '-y, x-y, z'
  3  '-x+y, -x, z'
  4  'x+2/3, y+1/3, z+1/3'
  5  '-y+2/3, x-y+1/3, z+1/3'
  6  '-x+y+2/3, -x+1/3, z+1/3'
  7  'x+1/3, y+2/3, z+2/3'
  8  '-y+1/3, x-y+2/3, z+2/3'
  9  '-x+y+1/3, -x+2/3, z+2/3'
loop_
 _atom_site_type_symbol
 _atom_site_label
 _atom_site_symmetry_multiplicity
 _atom_site_fract_x
 _atom_site_fract_y
 _atom_site_fract_z
 _atom_site_occupancy
  Mn  Mn0  3  0.00000000  0.00000000  0.28026027  1.0
  Mn  Mn1  3  0.00000000  0.00000000  0.48125204  1.0
  Mn  Mn2  3  0.00000000  0.00000000  0.96660299  1.0
  Ni  Ni3  3  0.00000000  0.00000000  0.76678388  1.0
  O  O4  9  0.01995863  0.63987117  0.54446843  1.0
  O  O5  9  0.03542502  0.35204898  0.03395604  1.0
