# generated using pymatgen
data_BaLa2Ir
_symmetry_space_group_name_H-M   Cm
_cell_length_a   7.46220840
_cell_length_b   4.32289700
_cell_length_c   10.26642368
_cell_angle_alpha   90.00000000
_cell_angle_beta   103.66081034
_cell_angle_gamma   90.00000000
_symmetry_Int_Tables_number   8
_chemical_formula_structural   BaLa2Ir
_chemical_formula_sum   'Ba2 La4 Ir2'
_cell_volume   321.80924291
_cell_formula_units_Z   2
loop_
 _symmetry_equiv_pos_site_id
 _symmetry_equiv_pos_as_xyz
  1  'x, y, z'
  2  'x, -y, z'
  3  'x+1/2, y+1/2, z'
  4  'x+1/2, -y+1/2, z'
loop_
 _atom_site_type_symbol
 _atom_site_label
 _atom_site_symmetry_multiplicity
 _atom_site_fract_x
 _atom_site_fract_y
 _atom_site_fract_z
 _atom_site_occupancy
  Ba  Ba0  2  0.49717963  0.50000000  0.20986927  1.0
  La  La1  2  0.22580816  0.00000000  0.86241877  1.0
  La  La2  2  0.46543049  0.00000000  0.57027778  1.0
  Ir  Ir3  2  0.34620949  0.50000000  0.71678543  1.0
