# generated using pymatgen
data_K3AlCl6
_symmetry_space_group_name_H-M   'P 1'
_cell_length_a   7.33238136
_cell_length_b   7.34343601
_cell_length_c   7.34756375
_cell_angle_alpha   62.44734123
_cell_angle_beta   62.44859384
_cell_angle_gamma   62.41862650
_symmetry_Int_Tables_number   1
_chemical_formula_structural   K3AlCl6
_chemical_formula_sum   'K3 Al1 Cl6'
_cell_volume   294.95916590
_cell_formula_units_Z   1
loop_
 _symmetry_equiv_pos_site_id
 _symmetry_equiv_pos_as_xyz
  1  'x, y, z'
loop_
 _atom_site_type_symbol
 _atom_site_label
 _atom_site_symmetry_multiplicity
 _atom_site_fract_x
 _atom_site_fract_y
 _atom_site_fract_z
 _atom_site_occupancy
  K  K0  1  0.50000000  0.50000000  0.00000000  1.0
  K  K1  1  0.23006284  0.22977339  0.72958001  1.0
  K  K2  1  0.76993716  0.77022661  0.27041999  1.0
  Al  Al3  1  0.00000000  0.00000000  0.50000000  1.0
  Cl  Cl4  1  0.87492148  0.69679512  0.69714610  1.0
  Cl  Cl5  1  0.80212326  0.12553601  0.80309122  1.0
  Cl  Cl6  1  0.19787674  0.87446399  0.19690878  1.0
  Cl  Cl7  1  0.30370222  0.80309155  0.62498254  1.0
  Cl  Cl8  1  0.12507852  0.30320488  0.30285390  1.0
  Cl  Cl9  1  0.69629778  0.19690845  0.37501746  1.0
