# generated using pymatgen
data_NaNiIO6
_symmetry_space_group_name_H-M   'P 1'
_cell_length_a   4.98851926
_cell_length_b   4.99761685
_cell_length_c   5.25109022
_cell_angle_alpha   89.96540485
_cell_angle_beta   89.93068350
_cell_angle_gamma   60.06019962
_symmetry_Int_Tables_number   1
_chemical_formula_structural   NaNiIO6
_chemical_formula_sum   'Na1 Ni1 I1 O6'
_cell_volume   113.44295559
_cell_formula_units_Z   1
loop_
 _symmetry_equiv_pos_site_id
 _symmetry_equiv_pos_as_xyz
  1  'x, y, z'
loop_
 _atom_site_type_symbol
 _atom_site_label
 _atom_site_symmetry_multiplicity
 _atom_site_fract_x
 _atom_site_fract_y
 _atom_site_fract_z
 _atom_site_occupancy
  Na  Na0  1  0.16534233  0.66931533  0.50000000  1.0
  Ni  Ni1  1  0.83237049  0.33525903  0.00000000  1.0
  I  I2  1  0.49904121  0.00191759  0.00000000  1.0
  O  O3  1  0.79204929  0.04494263  0.79729069  1.0
  O  O4  1  0.54162815  0.29437474  0.20288336  1.0
  O  O5  1  0.16399711  0.29437474  0.79711664  1.0
  O  O6  1  0.79159710  0.66639417  0.20312793  1.0
  O  O7  1  0.16300808  0.04494263  0.20270931  1.0
  O  O8  1  0.54200873  0.66639417  0.79687207  1.0
