# generated using pymatgen
data_NaSm(TmTe2)2
_symmetry_space_group_name_H-M   'P 1'
_cell_length_a   4.33961221
_cell_length_b   7.62587056
_cell_length_c   7.63459219
_cell_angle_alpha   108.76240059
_cell_angle_beta   90.00000000
_cell_angle_gamma   90.00000000
_symmetry_Int_Tables_number   1
_chemical_formula_structural   NaSm(TmTe2)2
_chemical_formula_sum   'Na1 Sm1 Tm2 Te4'
_cell_volume   239.22811179
_cell_formula_units_Z   1
loop_
 _symmetry_equiv_pos_site_id
 _symmetry_equiv_pos_as_xyz
  1  'x, y, z'
loop_
 _atom_site_type_symbol
 _atom_site_label
 _atom_site_symmetry_multiplicity
 _atom_site_fract_x
 _atom_site_fract_y
 _atom_site_fract_z
 _atom_site_occupancy
  Na  Na0  1  0.50000000  0.50000000  0.00000000  1.0
  Sm  Sm1  1  0.00000000  0.50000000  0.50000000  1.0
  Tm  Tm2  1  0.00000000  0.00000000  0.00000000  1.0
  Tm  Tm3  1  0.50000000  0.00000000  0.50000000  1.0
  Te  Te4  1  0.00000000  0.76075858  0.25327494  1.0
  Te  Te5  1  0.00000000  0.23924142  0.74672506  1.0
  Te  Te6  1  0.50000000  0.75933998  0.75608487  1.0
  Te  Te7  1  0.50000000  0.24066002  0.24391513  1.0
