# generated using pymatgen
data_Ta0.66666667Cr1.33333333O4
_symmetry_space_group_name_H-M   'P 1'
_cell_length_a   4.63975247
_cell_length_b   4.63975247
_cell_length_c   3.03638782
_cell_angle_alpha   90.00000000
_cell_angle_beta   90.00000000
_cell_angle_gamma   90.00000000
_symmetry_Int_Tables_number   1
_chemical_formula_structural   Ta0.66666667Cr1.33333333O4
_chemical_formula_sum   'Ta0.66666667 Cr1.33333333 O4'
_cell_volume   65.36524057
_cell_formula_units_Z   1
loop_
 _symmetry_equiv_pos_site_id
 _symmetry_equiv_pos_as_xyz
  1  'x, y, z'
loop_
 _atom_site_type_symbol
 _atom_site_label
 _atom_site_symmetry_multiplicity
 _atom_site_fract_x
 _atom_site_fract_y
 _atom_site_fract_z
 _atom_site_occupancy
  Ta  Cr1  1  0.00000000  0.00000000  0.00000000  0.3333333333333333
  Cr  Cr1  1  0.00000000  0.00000000  0.00000000  0.6666666666666666
  Ta  Cr1  1  0.50000000  0.50000000  0.50000000  0.3333333333333333
  Cr  Cr1  1  0.50000000  0.50000000  0.50000000  0.6666666666666666
  O  O2  1  0.19655223  0.19655223  0.50000000  1.0
  O  O2  1  0.80344777  0.80344777  0.50000000  1.0
  O  O2  1  0.30344777  0.69655223  0.00000000  1.0
  O  O2  1  0.69655223  0.30344777  0.00000000  1.0
