# generated using pymatgen
data_Ta0.66666667Cr1.33333333O4
_symmetry_space_group_name_H-M   P4_2/mnm
_cell_length_a   4.63975247
_cell_length_b   4.63975247
_cell_length_c   3.03638782
_cell_angle_alpha   90.00000000
_cell_angle_beta   90.00000000
_cell_angle_gamma   90.00000000
_symmetry_Int_Tables_number   136
_chemical_formula_structural   Ta0.66666667Cr1.33333333O4
_chemical_formula_sum   'Ta0.66666667 Cr1.33333333 O4'
_cell_volume   65.36524057
_cell_formula_units_Z   1
loop_
 _symmetry_equiv_pos_site_id
 _symmetry_equiv_pos_as_xyz
  1  'x, y, z'
  2  '-x, -y, -z'
  3  '-y+1/2, x+1/2, z+1/2'
  4  'y+1/2, -x+1/2, -z+1/2'
  5  '-x, -y, z'
  6  'x, y, -z'
  7  'y+1/2, -x+1/2, z+1/2'
  8  '-y+1/2, x+1/2, -z+1/2'
  9  'x+1/2, -y+1/2, -z+1/2'
  10  '-x+1/2, y+1/2, z+1/2'
  11  '-y, -x, -z'
  12  'y, x, z'
  13  '-x+1/2, y+1/2, -z+1/2'
  14  'x+1/2, -y+1/2, z+1/2'
  15  'y, x, -z'
  16  '-y, -x, z'
loop_
 _atom_site_type_symbol
 _atom_site_label
 _atom_site_symmetry_multiplicity
 _atom_site_fract_x
 _atom_site_fract_y
 _atom_site_fract_z
 _atom_site_occupancy
  Ta  Ta0  2  0.00000000  0.00000000  0.00000000  0.3333333333333333
  Cr  Cr1  2  0.00000000  0.00000000  0.00000000  0.6666666666666666
  O  O2  4  0.19655223  0.19655223  0.50000000  1.0
