# generated using pymatgen
data_TaCr2O6
_symmetry_space_group_name_H-M   'P 1'
_cell_length_a   4.63975247
_cell_length_b   4.63975247
_cell_length_c   9.10916345
_cell_angle_alpha   90.00000000
_cell_angle_beta   90.00000000
_cell_angle_gamma   90.00000000
_symmetry_Int_Tables_number   1
_chemical_formula_structural   TaCr2O6
_chemical_formula_sum   'Ta2 Cr4 O12'
_cell_volume   196.09572151
_cell_formula_units_Z   2
loop_
 _symmetry_equiv_pos_site_id
 _symmetry_equiv_pos_as_xyz
  1  'x, y, z'
loop_
 _atom_site_type_symbol
 _atom_site_label
 _atom_site_symmetry_multiplicity
 _atom_site_fract_x
 _atom_site_fract_y
 _atom_site_fract_z
 _atom_site_occupancy
  Ta  Ta0  1  0.00000000  0.00000000  0.00000000  1.0
  Ta  Ta0  1  0.50000000  0.50000000  0.50000000  1.0
  Cr  Cr1  1  0.00000000  0.00000000  0.33285057  1.0
  Cr  Cr1  1  0.00000000  0.00000000  0.66714943  1.0
  Cr  Cr1  1  0.50000000  0.50000000  0.83285057  1.0
  Cr  Cr1  1  0.50000000  0.50000000  0.16714943  1.0
  O  O2  1  0.19756912  0.19756912  0.16559713  1.0
  O  O2  1  0.80243088  0.80243088  0.83440287  1.0
  O  O2  1  0.30243088  0.69756912  0.66559713  1.0
  O  O2  1  0.69756912  0.30243088  0.33440287  1.0
  O  O2  1  0.80243088  0.80243088  0.16559713  1.0
  O  O2  1  0.19756912  0.19756912  0.83440287  1.0
  O  O2  1  0.69756912  0.30243088  0.66559713  1.0
  O  O2  1  0.30243088  0.69756912  0.33440287  1.0
  O  O3  1  0.19464118  0.19464118  0.50000000  1.0
  O  O3  1  0.80535882  0.80535882  0.50000000  1.0
  O  O3  1  0.30535882  0.69464118  0.00000000  1.0
  O  O3  1  0.69464118  0.30535882  0.00000000  1.0
