# generated using pymatgen
data_VBiO4
_symmetry_space_group_name_H-M   'P 1'
_cell_length_a   4.95898000
_cell_length_b   4.96935000
_cell_length_c   7.45609000
_cell_angle_alpha   90.00580000
_cell_angle_beta   90.04340000
_cell_angle_gamma   94.94600000
_symmetry_Int_Tables_number   1
_chemical_formula_structural   VBiO4
_chemical_formula_sum   'V2 Bi2 O8'
_cell_volume   183.05550570
_cell_formula_units_Z   2
loop_
 _symmetry_equiv_pos_site_id
 _symmetry_equiv_pos_as_xyz
  1  'x, y, z'
loop_
 _atom_site_type_symbol
 _atom_site_label
 _atom_site_symmetry_multiplicity
 _atom_site_fract_x
 _atom_site_fract_y
 _atom_site_fract_z
 _atom_site_occupancy
  V  V1  1  0.64134000  0.14298000  0.74979000  1.0
  V  V2  1  0.35866000  0.85702000  0.25021000  1.0
  Bi  Bi1  1  0.10145000  0.60399000  0.74988000  1.0
  Bi  Bi2  1  0.89855000  0.39601000  0.25012000  1.0
  O  O1  1  0.18967000  0.68708000  0.43130000  1.0
  O  O2  1  0.29788000  0.18056000  0.74999000  1.0
  O  O3  1  0.70212000  0.81944000  0.25001000  1.0
  O  O4  1  0.81039000  0.31263000  0.93090000  1.0
  O  O5  1  0.31869000  0.19960000  0.24979000  1.0
  O  O6  1  0.68131000  0.80040000  0.75021000  1.0
  O  O7  1  0.18961000  0.68737000  0.06910000  1.0
  O  O8  1  0.81033000  0.31292000  0.56870000  1.0
