# generated using pymatgen
data_Sr3V2O8
_symmetry_space_group_name_H-M   'P 1'
_cell_length_a   5.72412000
_cell_length_b   5.72717000
_cell_length_c   7.51409000
_cell_angle_alpha   67.76830000
_cell_angle_beta   67.68030000
_cell_angle_gamma   60.15960000
_symmetry_Int_Tables_number   1
_chemical_formula_structural   Sr3V2O8
_chemical_formula_sum   'Sr3 V2 O8'
_cell_volume   192.08149380
_cell_formula_units_Z   1
loop_
 _symmetry_equiv_pos_site_id
 _symmetry_equiv_pos_as_xyz
  1  'x, y, z'
loop_
 _atom_site_type_symbol
 _atom_site_label
 _atom_site_symmetry_multiplicity
 _atom_site_fract_x
 _atom_site_fract_y
 _atom_site_fract_z
 _atom_site_occupancy
  Sr  Sr1  1  0.79832000  0.79943000  0.60317000  1.0
  Sr  Sr2  1  0.20168000  0.20057000  0.39683000  1.0
  Sr  Sr3  1  0.00000000  0.00000000  0.00000000  1.0
  V  V1  1  0.40749000  0.40438000  0.78106000  1.0
  V  V2  1  0.59251000  0.59562000  0.21894000  1.0
  O  O1  1  0.31376000  0.22351000  0.69664000  1.0
  O  O2  1  0.76617000  0.31011000  0.69727000  1.0
  O  O3  1  0.22754000  0.76206000  0.69713000  1.0
  O  O4  1  0.68624000  0.77649000  0.30336000  1.0
  O  O5  1  0.32254000  0.31971000  0.03504000  1.0
  O  O6  1  0.67746000  0.68029000  0.96496000  1.0
  O  O7  1  0.23383000  0.68989000  0.30273000  1.0
  O  O8  1  0.77246000  0.23794000  0.30287000  1.0
