# generated using pymatgen
data_SrV2O4
_symmetry_space_group_name_H-M   'P 1'
_cell_length_a   5.32206000
_cell_length_b   6.06570000
_cell_length_c   6.79311000
_cell_angle_alpha   115.76000000
_cell_angle_beta   103.70800000
_cell_angle_gamma   90.79170000
_symmetry_Int_Tables_number   1
_chemical_formula_structural   SrV2O4
_chemical_formula_sum   'Sr2 V4 O8'
_cell_volume   190.15914603
_cell_formula_units_Z   2
loop_
 _symmetry_equiv_pos_site_id
 _symmetry_equiv_pos_as_xyz
  1  'x, y, z'
loop_
 _atom_site_type_symbol
 _atom_site_label
 _atom_site_symmetry_multiplicity
 _atom_site_fract_x
 _atom_site_fract_y
 _atom_site_fract_z
 _atom_site_occupancy
  Sr  Sr1  1  0.29723000  0.24339000  0.98897000  1.0
  Sr  Sr2  1  0.70277000  0.75661000  0.01103000  1.0
  V  V1  1  0.50000000  0.00000000  0.50000000  1.0
  V  V2  1  0.50000000  0.50000000  0.50000000  1.0
  V  V3  1  0.99986000  0.25458000  0.50018000  1.0
  V  V4  1  0.00014000  0.74542000  0.49982000  1.0
  O  O1  1  0.39916000  0.35266000  0.69498000  1.0
  O  O2  1  0.39997000  0.84777000  0.69415000  1.0
  O  O3  1  0.88630000  0.58548000  0.67681000  1.0
  O  O4  1  0.11340000  0.91515000  0.32502000  1.0
  O  O5  1  0.11370000  0.41452000  0.32319000  1.0
  O  O6  1  0.88660000  0.08485000  0.67498000  1.0
  O  O7  1  0.60003000  0.15223000  0.30585000  1.0
  O  O8  1  0.60084000  0.64734000  0.30502000  1.0
