# generated using pymatgen
data_SrV2O6
_symmetry_space_group_name_H-M   'P 1'
_cell_length_a   3.78110000
_cell_length_b   5.87562000
_cell_length_c   7.42507000
_cell_angle_alpha   101.11100000
_cell_angle_beta   90.07430000
_cell_angle_gamma   108.64000000
_symmetry_Int_Tables_number   1
_chemical_formula_structural   SrV2O6
_chemical_formula_sum   'Sr1 V2 O6'
_cell_volume   153.02377039
_cell_formula_units_Z   1
loop_
 _symmetry_equiv_pos_site_id
 _symmetry_equiv_pos_as_xyz
  1  'x, y, z'
loop_
 _atom_site_type_symbol
 _atom_site_label
 _atom_site_symmetry_multiplicity
 _atom_site_fract_x
 _atom_site_fract_y
 _atom_site_fract_z
 _atom_site_occupancy
  Sr  Sr1  1  0.45571000  0.74499000  0.36646000  1.0
  V  V1  1  0.20762000  0.24997000  0.70002000  1.0
  V  V2  1  0.70384000  0.24084000  0.03353000  1.0
  O  O1  1  0.21440000  0.26230000  0.96862000  1.0
  O  O2  1  0.08321000  0.00080000  0.52151000  1.0
  O  O3  1  0.82839000  0.48974000  0.21229000  1.0
  O  O4  1  0.69748000  0.22918000  0.76522000  1.0
  O  O5  1  0.57683000  0.98440000  0.11398000  1.0
  O  O6  1  0.33439000  0.50598000  0.61906000  1.0
