# generated using pymatgen
data_MgMn4Fe3O8
_symmetry_space_group_name_H-M   'P 1'
_cell_length_a   6.23428000
_cell_length_b   6.27508000
_cell_length_c   6.27016000
_cell_angle_alpha   88.68040000
_cell_angle_beta   60.59250000
_cell_angle_gamma   119.18200000
_symmetry_Int_Tables_number   1
_chemical_formula_structural   MgMn4Fe3O8
_chemical_formula_sum   'Mg1 Mn4 Fe3 O8'
_cell_volume   175.10593603
_cell_formula_units_Z   1
loop_
 _symmetry_equiv_pos_site_id
 _symmetry_equiv_pos_as_xyz
  1  'x, y, z'
loop_
 _atom_site_type_symbol
 _atom_site_label
 _atom_site_symmetry_multiplicity
 _atom_site_fract_x
 _atom_site_fract_y
 _atom_site_fract_z
 _atom_site_occupancy
  Mg  Mg1  1  0.10320000  0.98096000  0.78987000  1.0
  Mn  Mn1  1  0.60337000  0.48109000  0.78966000  1.0
  Mn  Mn2  1  0.10328000  0.98136000  0.28970000  1.0
  Mn  Mn3  1  0.60309000  0.48113000  0.28985000  1.0
  Mn  Mn4  1  0.10258000  0.48085000  0.79012000  1.0
  Fe  Fe1  1  0.60292000  0.98095000  0.28984000  1.0
  Fe  Fe2  1  0.10355000  0.48137000  0.28948000  1.0
  Fe  Fe3  1  0.60313000  0.98117000  0.78982000  1.0
  O  O1  1  0.10051000  0.72232000  0.04797000  1.0
  O  O2  1  0.10587000  0.24001000  0.53160000  1.0
  O  O3  1  0.58586000  0.21497000  0.55713000  1.0
  O  O4  1  0.60240000  0.23478000  0.03947000  1.0
  O  O5  1  0.08715000  0.21496000  0.03943000  1.0
  O  O6  1  0.60335000  0.72740000  0.54035000  1.0
  O  O7  1  0.11913000  0.74709000  0.54018000  1.0
  O  O8  1  0.62078000  0.74734000  0.02221000  1.0
