# generated using pymatgen
data_Mn2Fe3O5
_symmetry_space_group_name_H-M   'P 1'
_cell_length_a   5.50230000
_cell_length_b   5.47512000
_cell_length_c   8.24408000
_cell_angle_alpha   71.33730000
_cell_angle_beta   82.96680000
_cell_angle_gamma   69.54000000
_symmetry_Int_Tables_number   1
_chemical_formula_structural   Mn2Fe3O5
_chemical_formula_sum   'Mn4 Fe6 O10'
_cell_volume   220.44084459
_cell_formula_units_Z   2
loop_
 _symmetry_equiv_pos_site_id
 _symmetry_equiv_pos_as_xyz
  1  'x, y, z'
loop_
 _atom_site_type_symbol
 _atom_site_label
 _atom_site_symmetry_multiplicity
 _atom_site_fract_x
 _atom_site_fract_y
 _atom_site_fract_z
 _atom_site_occupancy
  Mn  Mn1  1  0.24469000  0.99172000  0.76556000  1.0
  Mn  Mn2  1  0.24625000  0.59180000  0.56158000  1.0
  Mn  Mn3  1  0.74631000  0.09155000  0.56184000  1.0
  Mn  Mn4  1  0.24863000  0.19141000  0.35759000  1.0
  Fe  Fe1  1  0.24773000  0.39496000  0.96082000  1.0
  Fe  Fe2  1  0.74356000  0.88970000  0.96233000  1.0
  Fe  Fe3  1  0.74913000  0.29359000  0.16136000  1.0
  Fe  Fe4  1  0.74893000  0.69100000  0.35740000  1.0
  Fe  Fe5  1  0.74366000  0.49308000  0.76538000  1.0
  Fe  Fe6  1  0.24477000  0.78875000  0.16279000  1.0
  O  O1  1  0.98668000  0.75300000  0.76510000  1.0
  O  O2  1  0.48255000  0.25076000  0.76801000  1.0
  O  O3  1  0.01024000  0.93230000  0.35545000  1.0
  O  O4  1  0.50299000  0.83061000  0.56909000  1.0
  O  O5  1  0.50719000  0.43039000  0.35836000  1.0
  O  O6  1  0.51029000  0.02392000  0.16498000  1.0
  O  O7  1  0.98100000  0.15990000  0.95827000  1.0
  O  O8  1  0.99076000  0.35157000  0.55441000  1.0
  O  O9  1  0.00776000  0.53535000  0.15381000  1.0
  O  O10  1  0.48537000  0.64941000  0.96978000  1.0
