# generated using pymatgen
data_MnFe3O4
_symmetry_space_group_name_H-M   'P 1'
_cell_length_a   3.16722000
_cell_length_b   3.17168000
_cell_length_c   8.62096000
_cell_angle_alpha   90.05770000
_cell_angle_beta   89.65480000
_cell_angle_gamma   89.93640000
_symmetry_Int_Tables_number   1
_chemical_formula_structural   MnFe3O4
_chemical_formula_sum   'Mn1 Fe3 O4'
_cell_volume   86.59939377
_cell_formula_units_Z   1
loop_
 _symmetry_equiv_pos_site_id
 _symmetry_equiv_pos_as_xyz
  1  'x, y, z'
loop_
 _atom_site_type_symbol
 _atom_site_label
 _atom_site_symmetry_multiplicity
 _atom_site_fract_x
 _atom_site_fract_y
 _atom_site_fract_z
 _atom_site_occupancy
  Mn  Mn1  1  0.36624000  0.50372000  0.18560000  1.0
  Fe  Fe1  1  0.86799000  0.00412000  0.43880000  1.0
  Fe  Fe2  1  0.86782000  0.00426000  0.93232000  1.0
  Fe  Fe3  1  0.37083000  0.50478000  0.68555000  1.0
  O  O1  1  0.86938000  0.00537000  0.68559000  1.0
  O  O2  1  0.36713000  0.50447000  0.93032000  1.0
  O  O3  1  0.36741000  0.50431000  0.44077000  1.0
  O  O4  1  0.86584000  0.00365000  0.18552000  1.0
