# generated using pymatgen
data_CsMgIn9
_symmetry_space_group_name_H-M   P-6m2
_cell_length_a   8.79346500
_cell_length_b   8.79346500
_cell_length_c   5.00542000
_cell_angle_alpha   90.00000000
_cell_angle_beta   90.00000000
_cell_angle_gamma   120.00000000
_symmetry_Int_Tables_number   187
_chemical_formula_structural   CsMgIn9
_chemical_formula_sum   'Cs1 Mg1 In9'
_cell_volume   335.19014005
_cell_formula_units_Z   1
loop_
 _symmetry_equiv_pos_site_id
 _symmetry_equiv_pos_as_xyz
  1  'x, y, z'
  2  '-x+y, -x, -z'
  3  '-y, x-y, z'
  4  'x, y, -z'
  5  '-x+y, -x, z'
  6  '-y, x-y, -z'
  7  '-y, -x, -z'
  8  'x, x-y, z'
  9  '-x+y, y, -z'
  10  '-y, -x, z'
  11  'x, x-y, -z'
  12  '-x+y, y, z'
loop_
 _atom_site_type_symbol
 _atom_site_label
 _atom_site_symmetry_multiplicity
 _atom_site_fract_x
 _atom_site_fract_y
 _atom_site_fract_z
 _atom_site_occupancy
  Cs  Cs0  1  0.66666667  0.33333333  0.00000000  1.0
  Mg  Mg1  1  0.00000000  0.00000000  0.00000000  1.0
  In  In2  3  0.07624667  0.53812333  0.50000000  1.0
  In  In3  3  0.19901667  0.80098333  0.00000000  1.0
  In  In4  3  0.25292667  0.12646333  0.50000000  1.0
