# generated using pymatgen
data_KNdOsO6
_symmetry_space_group_name_H-M   P-31c
_cell_length_a   5.80593000
_cell_length_b   5.80593000
_cell_length_c   11.07540000
_cell_angle_alpha   90.00000000
_cell_angle_beta   90.00000000
_cell_angle_gamma   120.00000000
_symmetry_Int_Tables_number   163
_chemical_formula_structural   KNdOsO6
_chemical_formula_sum   'K2 Nd2 Os2 O12'
_cell_volume   323.32079849
_cell_formula_units_Z   2
loop_
 _symmetry_equiv_pos_site_id
 _symmetry_equiv_pos_as_xyz
  1  'x, y, z'
  2  '-x, -y, -z'
  3  '-y, x-y, z'
  4  'y, -x+y, -z'
  5  '-x+y, -x, z'
  6  'x-y, x, -z'
  7  '-y, -x, -z+1/2'
  8  'y, x, z+1/2'
  9  '-x+y, y, -z+1/2'
  10  'x-y, -y, z+1/2'
  11  'x, x-y, -z+1/2'
  12  '-x, -x+y, z+1/2'
loop_
 _atom_site_type_symbol
 _atom_site_label
 _atom_site_symmetry_multiplicity
 _atom_site_fract_x
 _atom_site_fract_y
 _atom_site_fract_z
 _atom_site_occupancy
  K  K0  2  0.00000000  0.00000000  0.00000000  1.0
  Nd  Nd1  2  0.33333333  0.66666667  0.75000000  1.0
  Os  Os2  2  0.33333333  0.66666667  0.25000000  1.0
  O  O3  12  0.06048667  0.40982333  0.15234000  1.0
