# generated using pymatgen
data_KNdOsO6
_symmetry_space_group_name_H-M   'P 1'
_cell_length_a   5.80593000
_cell_length_b   5.80593000
_cell_length_c   11.07540000
_cell_angle_alpha   89.97940000
_cell_angle_beta   89.97940000
_cell_angle_gamma   119.98700000
_symmetry_Int_Tables_number   1
_chemical_formula_structural   KNdOsO6
_chemical_formula_sum   'K2 Nd2 Os2 O12'
_cell_volume   323.36306053
_cell_formula_units_Z   2
loop_
 _symmetry_equiv_pos_site_id
 _symmetry_equiv_pos_as_xyz
  1  'x, y, z'
loop_
 _atom_site_type_symbol
 _atom_site_label
 _atom_site_symmetry_multiplicity
 _atom_site_fract_x
 _atom_site_fract_y
 _atom_site_fract_z
 _atom_site_occupancy
  K  K1  1  0.93970000  0.06088000  0.24980000  1.0
  K  K2  1  0.93912000  0.06030000  0.75020000  1.0
  Nd  Nd1  1  0.27247000  0.72753000  0.00000000  1.0
  Nd  Nd2  1  0.60610000  0.39390000  0.50000000  1.0
  Os  Os1  1  0.60573000  0.39427000  0.00000000  1.0
  Os  Os2  1  0.27295000  0.72705000  0.50000000  1.0
  O  O1  1  0.52949000  0.00020000  0.59766000  1.0
  O  O2  1  0.34888000  0.41041000  0.09749000  1.0
  O  O3  1  0.28881000  0.46990000  0.59754000  1.0
  O  O4  1  0.87911000  0.65120000  0.09747000  1.0
  O  O5  1  0.34880000  0.12089000  0.90253000  1.0
  O  O6  1  0.99980000  0.47051000  0.40234000  1.0
  O  O7  1  0.99941000  0.71056000  0.59758000  1.0
  O  O8  1  0.28944000  0.00059000  0.40242000  1.0
  O  O9  1  0.87920000  0.41021000  0.90248000  1.0
  O  O10  1  0.58979000  0.12080000  0.09752000  1.0
  O  O11  1  0.53010000  0.71119000  0.40246000  1.0
  O  O12  1  0.58959000  0.65112000  0.90251000  1.0
