# generated using pymatgen
data_Li(SnCl3)2
_symmetry_space_group_name_H-M   'P 1'
_cell_length_a   6.41540000
_cell_length_b   6.42099000
_cell_length_c   12.15040000
_cell_angle_alpha   90.03830000
_cell_angle_beta   90.02910000
_cell_angle_gamma   90.06100000
_symmetry_Int_Tables_number   1
_chemical_formula_structural   Li(SnCl3)2
_chemical_formula_sum   'Li2 Sn4 Cl12'
_cell_volume   500.51363090
_cell_formula_units_Z   2
loop_
 _symmetry_equiv_pos_site_id
 _symmetry_equiv_pos_as_xyz
  1  'x, y, z'
loop_
 _atom_site_type_symbol
 _atom_site_label
 _atom_site_symmetry_multiplicity
 _atom_site_fract_x
 _atom_site_fract_y
 _atom_site_fract_z
 _atom_site_occupancy
  Li  Li1  1  0.50000000  0.00000000  0.00000000  1.0
  Li  Li2  1  0.00000000  0.50000000  0.50000000  1.0
  Sn  Sn1  1  0.49974000  0.99978000  0.66714000  1.0
  Sn  Sn2  1  0.99999000  0.50011000  0.16752000  1.0
  Sn  Sn3  1  0.00001000  0.49989000  0.83248000  1.0
  Sn  Sn4  1  0.50026000  0.00022000  0.33286000  1.0
  Cl  Cl1  1  0.30320000  0.80333000  0.83622000  1.0
  Cl  Cl2  1  0.20486000  0.29557000  0.99975000  1.0
  Cl  Cl3  1  0.30273000  0.80319000  0.16361000  1.0
  Cl  Cl4  1  0.70523000  0.20529000  0.50034000  1.0
  Cl  Cl5  1  0.29477000  0.79471000  0.49966000  1.0
  Cl  Cl6  1  0.80299000  0.69725000  0.33628000  1.0
  Cl  Cl7  1  0.69727000  0.19681000  0.83639000  1.0
  Cl  Cl8  1  0.19714000  0.30279000  0.33632000  1.0
  Cl  Cl9  1  0.69680000  0.19667000  0.16378000  1.0
  Cl  Cl10  1  0.79514000  0.70443000  0.00025000  1.0
  Cl  Cl11  1  0.19701000  0.30275000  0.66372000  1.0
  Cl  Cl12  1  0.80286000  0.69721000  0.66368000  1.0
