# generated using pymatgen
data_Mn6O5F7
_symmetry_space_group_name_H-M   'P 1'
_cell_length_a   3.12293000
_cell_length_b   4.83419000
_cell_length_c   14.41190000
_cell_angle_alpha   91.12190000
_cell_angle_beta   90.00000000
_cell_angle_gamma   90.00000000
_symmetry_Int_Tables_number   1
_chemical_formula_structural   Mn6O5F7
_chemical_formula_sum   'Mn6 O5 F7'
_cell_volume   217.53239615
_cell_formula_units_Z   1
loop_
 _symmetry_equiv_pos_site_id
 _symmetry_equiv_pos_as_xyz
  1  'x, y, z'
loop_
 _atom_site_type_symbol
 _atom_site_label
 _atom_site_symmetry_multiplicity
 _atom_site_fract_x
 _atom_site_fract_y
 _atom_site_fract_z
 _atom_site_occupancy
  Mn  Mn1  1  0.00000000  0.87158000  0.43471000  1.0
  Mn  Mn2  1  0.50000000  0.49050000  0.92714000  1.0
  Mn  Mn3  1  0.00000000  0.92633000  0.08778000  1.0
  Mn  Mn4  1  0.00000000  0.97888000  0.73863000  1.0
  Mn  Mn5  1  0.50000000  0.36308000  0.24748000  1.0
  Mn  Mn6  1  0.50000000  0.45597000  0.59550000  1.0
  O  O1  1  0.00000000  0.65593000  0.98955000  1.0
  O  O2  1  0.50000000  0.16748000  0.68671000  1.0
  O  O3  1  0.00000000  0.64147000  0.64964000  1.0
  O  O4  1  0.50000000  0.69528000  0.48984000  1.0
  O  O5  1  0.00000000  0.19370000  0.18621000  1.0
  F  F1  1  0.50000000  0.06707000  0.36393000  1.0
  F  F2  1  0.00000000  0.56521000  0.31629000  1.0
  F  F3  1  0.00000000  0.23541000  0.52778000  1.0
  F  F4  1  0.00000000  0.28698000  0.85822000  1.0
  F  F5  1  0.50000000  0.72340000  0.15287000  1.0
  F  F6  1  0.50000000  0.12929000  0.02293000  1.0
  F  F7  1  0.50000000  0.79367000  0.81383000  1.0
