# generated using pymatgen
data_MnSn2F6
_symmetry_space_group_name_H-M   'P 1'
_cell_length_a   4.09015000
_cell_length_b   5.54489000
_cell_length_c   7.03755000
_cell_angle_alpha   113.16200000
_cell_angle_beta   106.89400000
_cell_angle_gamma   90.00000000
_symmetry_Int_Tables_number   1
_chemical_formula_structural   MnSn2F6
_chemical_formula_sum   'Mn1 Sn2 F6'
_cell_volume   139.21960595
_cell_formula_units_Z   1
loop_
 _symmetry_equiv_pos_site_id
 _symmetry_equiv_pos_as_xyz
  1  'x, y, z'
loop_
 _atom_site_type_symbol
 _atom_site_label
 _atom_site_symmetry_multiplicity
 _atom_site_fract_x
 _atom_site_fract_y
 _atom_site_fract_z
 _atom_site_occupancy
  Mn  Mn1  1  0.50000000  0.50000000  0.00000000  1.0
  Sn  Sn1  1  0.15475000  0.15515000  0.30951000  1.0
  Sn  Sn2  1  0.84525000  0.84485000  0.69049000  1.0
  F  F1  1  0.35902000  0.60376000  0.71804000  1.0
  F  F2  1  0.99975000  0.74437000  0.99950000  1.0
  F  F3  1  0.64014000  0.88567000  0.28028000  1.0
  F  F4  1  0.35986000  0.11433000  0.71972000  1.0
  F  F5  1  0.00025000  0.25563000  0.00050000  1.0
  F  F6  1  0.64098000  0.39624000  0.28196000  1.0
