# generated using pymatgen
data_Rb2Tl2TeSe4
_symmetry_space_group_name_H-M   P-1
_cell_length_a   6.05341000
_cell_length_b   7.31134000
_cell_length_c   8.46401000
_cell_angle_alpha   112.22600000
_cell_angle_beta   96.82050000
_cell_angle_gamma   96.48550000
_symmetry_Int_Tables_number   2
_chemical_formula_structural   Rb2Tl2TeSe4
_chemical_formula_sum   'Rb2 Tl2 Te1 Se4'
_cell_volume   339.20013264
_cell_formula_units_Z   1
loop_
 _symmetry_equiv_pos_site_id
 _symmetry_equiv_pos_as_xyz
  1  'x, y, z'
  2  '-x, -y, -z'
loop_
 _atom_site_type_symbol
 _atom_site_label
 _atom_site_symmetry_multiplicity
 _atom_site_fract_x
 _atom_site_fract_y
 _atom_site_fract_z
 _atom_site_occupancy
  Rb  Rb0  2  0.10800000  0.36605000  0.24769000  1.0
  Tl  Tl1  2  0.27015000  0.16423000  0.60277000  1.0
  Te  Te2  1  0.50000000  0.00000000  0.00000000  1.0
  Se  Se3  2  0.38894000  0.79045000  0.63027000  1.0
  Se  Se4  2  0.38909000  0.63351000  0.04550000  1.0
