# generated using pymatgen
data_RbCu4Ag3F12
_symmetry_space_group_name_H-M   'P 1'
_cell_length_a   6.98181000
_cell_length_b   6.98181000
_cell_length_c   6.98316000
_cell_angle_alpha   70.57210000
_cell_angle_beta   70.54430000
_cell_angle_gamma   109.52200000
_symmetry_Int_Tables_number   1
_chemical_formula_structural   RbCu4Ag3F12
_chemical_formula_sum   'Rb1 Cu4 Ag3 F12'
_cell_volume   262.06506137
_cell_formula_units_Z   1
loop_
 _symmetry_equiv_pos_site_id
 _symmetry_equiv_pos_as_xyz
  1  'x, y, z'
loop_
 _atom_site_type_symbol
 _atom_site_label
 _atom_site_symmetry_multiplicity
 _atom_site_fract_x
 _atom_site_fract_y
 _atom_site_fract_z
 _atom_site_occupancy
  Rb  Rb1  1  0.67717000  0.17717000  0.50000000  1.0
  Cu  Cu1  1  0.17737000  0.67717000  0.00003000  1.0
  Cu  Cu2  1  0.67779000  0.67768000  0.49991000  1.0
  Cu  Cu3  1  0.17759000  0.17770000  0.50009000  1.0
  Cu  Cu4  1  0.67719000  0.17739000  0.99997000  1.0
  Ag  Ag1  1  0.17736000  0.67736000  0.50000000  1.0
  Ag  Ag2  1  0.17728000  0.17728000  0.00000000  1.0
  Ag  Ag3  1  0.67790000  0.67790000  0.00000000  1.0
  F  F1  1  0.89749000  0.89506000  0.56269000  1.0
  F  F2  1  0.39531000  0.67422000  0.72004000  1.0
  F  F3  1  0.95980000  0.23881000  0.72038000  1.0
  F  F4  1  0.89730000  0.45896000  0.99826000  1.0
  F  F5  1  0.17563000  0.95695000  0.78248000  1.0
  F  F6  1  0.17887000  0.39781000  0.21815000  1.0
  F  F7  1  0.73943000  0.95811000  0.21752000  1.0
  F  F8  1  0.61597000  0.39702000  0.78185000  1.0
  F  F9  1  0.39426000  0.11534000  0.27996000  1.0
  F  F10  1  0.95918000  0.68018000  0.27962000  1.0
  F  F11  1  0.45775000  0.46017000  0.43731000  1.0
  F  F12  1  0.45722000  0.89557000  0.00174000  1.0
