# generated using pymatgen
data_SrCaSiPt
_symmetry_space_group_name_H-M   'P 1'
_cell_length_a   4.35906000
_cell_length_b   4.70308000
_cell_length_c   5.68889000
_cell_angle_alpha   114.41600000
_cell_angle_beta   90.00000000
_cell_angle_gamma   90.00000000
_symmetry_Int_Tables_number   1
_chemical_formula_structural   SrCaSiPt
_chemical_formula_sum   'Sr1 Ca1 Si1 Pt1'
_cell_volume   106.19773633
_cell_formula_units_Z   1
loop_
 _symmetry_equiv_pos_site_id
 _symmetry_equiv_pos_as_xyz
  1  'x, y, z'
loop_
 _atom_site_type_symbol
 _atom_site_label
 _atom_site_symmetry_multiplicity
 _atom_site_fract_x
 _atom_site_fract_y
 _atom_site_fract_z
 _atom_site_occupancy
  Sr  Sr1  1  0.50000000  0.64598000  0.29196000  1.0
  Ca  Ca1  1  0.00000000  0.93545000  0.87090000  1.0
  Si  Si1  1  0.00000000  0.25261000  0.50522000  1.0
  Pt  Pt1  1  0.50000000  0.34797000  0.69594000  1.0
