# generated using pymatgen
data_Fe10CoH
_symmetry_space_group_name_H-M   P1
_cell_length_a   4.07337559
_cell_length_b   4.76820251
_cell_length_c   7.04398810
_cell_angle_alpha   90.18491250
_cell_angle_beta   106.74469447
_cell_angle_gamma   90.05626481
_symmetry_Int_Tables_number   1
_chemical_formula_structural   Fe10CoH
_chemical_formula_sum   'Fe10 Co1 H1'
_cell_volume   131.01103707
_cell_formula_units_Z   1
loop_
 _symmetry_equiv_pos_site_id
 _symmetry_equiv_pos_as_xyz
  1  'x, y, z'
loop_
 _atom_site_type_symbol
 _atom_site_label
 _atom_site_symmetry_multiplicity
 _atom_site_fract_x
 _atom_site_fract_y
 _atom_site_fract_z
 _atom_site_occupancy
  Fe  Fe0  1  0.03354033  0.21593938  0.97675989  1
  Fe  Fe1  1  0.12404329  0.76299976  0.15940581  1
  Fe  Fe2  1  0.21823499  0.30820870  0.33331286  1
  Fe  Fe3  1  0.30372014  0.85487028  0.52400759  1
  Fe  Fe4  1  0.41007405  0.39839307  0.71391012  1
  Fe  Fe5  1  0.57935603  0.49483431  0.06878569  1
  Fe  Fe6  1  0.66681606  0.03635020  0.24669688  1
  Fe  Fe7  1  0.74697585  0.59195291  0.42880130  1
  Fe  Fe8  1  0.84247643  0.11895686  0.61734544  1
  Fe  Fe9  1  0.94364795  0.67406449  0.79936661  1
  Co  Co10  1  0.48802852  0.94441581  0.88741254  1
  H  H11  1  0.05431853  0.35749899  0.52396405  1
