# generated using pymatgen
data_Fe11Co2
_symmetry_space_group_name_H-M   'P 1'
_cell_length_a   4.03213857
_cell_length_b   4.73465385
_cell_length_c   9.01244331
_cell_angle_alpha   78.92926873
_cell_angle_beta   77.07364790
_cell_angle_gamma   64.79797078
_symmetry_Int_Tables_number   1
_chemical_formula_structural   Fe11Co2
_chemical_formula_sum   'Fe11 Co2'
_cell_volume   150.81572443
_cell_formula_units_Z   1
loop_
 _symmetry_equiv_pos_site_id
 _symmetry_equiv_pos_as_xyz
  1  'x, y, z'
loop_
 _atom_site_type_symbol
 _atom_site_label
 _atom_site_symmetry_multiplicity
 _atom_site_fract_x
 _atom_site_fract_y
 _atom_site_fract_z
 _atom_site_occupancy
  Fe  Fe0  1  0.11688580  0.91984364  0.84638476  1
  Fe  Fe1  1  0.96217214  0.69161523  0.38404049  1
  Fe  Fe2  1  0.65464251  0.23050592  0.46020906  1
  Fe  Fe3  1  0.03782786  0.30838477  0.61595951  1
  Fe  Fe4  1  0.19095501  0.53998039  0.07810959  1
  Fe  Fe5  1  0.34535749  0.76949408  0.53979094  1
  Fe  Fe6  1  0.88311420  0.08015636  0.15361524  1
  Fe  Fe7  1  0.80904499  0.46001961  0.92189041  1
  Fe  Fe8  1  0.50000000  0.00000000  0.00000000  1
  Fe  Fe9  1  0.72930416  0.84911320  0.69227849  1
  Fe  Fe10  1  0.27069584  0.15088680  0.30772151  1
  Co  Co11  1  0.42318684  0.38406897  0.76955734  1
  Co  Co12  1  0.57681316  0.61593103  0.23044266  1
