# generated using pymatgen
data_Fe11Co2
_symmetry_space_group_name_H-M   C2/m
_cell_length_a   8.56794297
_cell_length_b   4.03213857
_cell_length_c   9.34097057
_cell_angle_alpha   90.00000000
_cell_angle_beta   110.82014431
_cell_angle_gamma   90.00000000
_symmetry_Int_Tables_number   12
_chemical_formula_structural   Fe11Co2
_chemical_formula_sum   'Fe22 Co4'
_cell_volume   301.63144886
_cell_formula_units_Z   2
loop_
 _symmetry_equiv_pos_site_id
 _symmetry_equiv_pos_as_xyz
  1  'x, y, z'
  2  '-x, -y, -z'
  3  '-x, y, -z'
  4  'x, -y, z'
  5  'x+1/2, y+1/2, z'
  6  '-x+1/2, -y+1/2, -z'
  7  '-x+1/2, y+1/2, -z'
  8  'x+1/2, -y+1/2, z'
loop_
 _atom_site_type_symbol
 _atom_site_label
 _atom_site_symmetry_multiplicity
 _atom_site_fract_x
 _atom_site_fract_y
 _atom_site_fract_z
 _atom_site_occupancy
  Fe  Fe0  4  0.03782786  0.00000000  0.38404049  1
  Fe  Fe1  4  0.11688580  0.00000000  0.15361524  1
  Fe  Fe2  4  0.15464251  0.50000000  0.53979094  1
  Fe  Fe3  4  0.19095501  0.00000000  0.92189041  1
  Fe  Fe4  4  0.22930416  0.50000000  0.30772151  1
  Fe  Fe5  2  0.00000000  0.50000000  0.00000000  1
  Co  Co6  4  0.07681316  0.50000000  0.76955734  1
