# generated using pymatgen
data_Fe12Co3H
_symmetry_space_group_name_H-M   P-1
_cell_length_a   4.83163914
_cell_length_b   6.21000956
_cell_length_c   6.35799547
_cell_angle_alpha   72.01759568
_cell_angle_beta   82.43666594
_cell_angle_gamma   78.98454678
_symmetry_Int_Tables_number   2
_chemical_formula_structural   Fe12Co3H
_chemical_formula_sum   'Fe12 Co3 H1'
_cell_volume   177.56696654
_cell_formula_units_Z   1
loop_
 _symmetry_equiv_pos_site_id
 _symmetry_equiv_pos_as_xyz
  1  'x, y, z'
  2  '-x, -y, -z'
loop_
 _atom_site_type_symbol
 _atom_site_label
 _atom_site_symmetry_multiplicity
 _atom_site_fract_x
 _atom_site_fract_y
 _atom_site_fract_z
 _atom_site_occupancy
  Fe  Fe0  2  0.13756135  0.40123118  0.16398572  1
  Fe  Fe1  2  0.17171748  0.61287488  0.49937609  1
  Fe  Fe2  2  0.26370783  0.80143520  0.83476374  1
  Fe  Fe3  2  0.33020365  0.00030282  0.16663461  1
  Fe  Fe4  2  0.39981132  0.19855007  0.50019772  1
  Fe  Fe5  2  0.46509532  0.39977687  0.83192478  1
  Co  Co6  2  0.06951805  0.19853989  0.83569175  1
  Co  Co7  1  0.00000000  0.00000000  0.50000000  1
  H  H8  1  0.50000000  0.50000000  0.50000000  1
