# generated using pymatgen
data_Fe13Co3H2
_symmetry_space_group_name_H-M   'P 1'
_cell_length_a   5.60862980
_cell_length_b   6.30450419
_cell_length_c   6.67341516
_cell_angle_alpha   112.28409656
_cell_angle_beta   90.00523144
_cell_angle_gamma   116.35530511
_symmetry_Int_Tables_number   1
_chemical_formula_structural   Fe13Co3H2
_chemical_formula_sum   'Fe13 Co3 H2'
_cell_volume   191.57142961
_cell_formula_units_Z   1
loop_
 _symmetry_equiv_pos_site_id
 _symmetry_equiv_pos_as_xyz
  1  'x, y, z'
loop_
 _atom_site_type_symbol
 _atom_site_label
 _atom_site_symmetry_multiplicity
 _atom_site_fract_x
 _atom_site_fract_y
 _atom_site_fract_z
 _atom_site_occupancy
  Fe  Fe0  1  0.77750524  0.20772643  0.49281236  1
  Fe  Fe1  1  0.89819601  0.45558779  0.99121844  1
  Fe  Fe2  1  0.46512674  0.08149298  0.74111829  1
  Fe  Fe3  1  0.15163021  0.95407503  0.99159853  1
  Fe  Fe4  1  0.08263800  0.31631872  0.21498446  1
  Fe  Fe5  1  0.53051899  0.70391292  0.49317199  1
  Fe  Fe6  1  0.27879326  0.20776692  0.49286366  1
  Fe  Fe7  1  0.65099018  0.95408979  0.99170092  1
  Fe  Fe8  1  0.02197577  0.70410124  0.49316271  1
  Fe  Fe9  1  0.34600138  0.84333177  0.26954372  1
  Fe  Fe10  1  0.96363721  0.07884581  0.74254357  1
  Fe  Fe11  1  0.84051150  0.83248329  0.24503767  1
  Fe  Fe12  1  0.40598664  0.45545794  0.99114992  1
  Co  Co13  1  0.58872237  0.32892762  0.23838463  1
  Co  Co14  1  0.71487429  0.58108425  0.74357205  1
  Co  Co15  1  0.21462745  0.57971654  0.74230828  1
  H  H16  1  0.14689805  0.45192690  0.48341955  1
  H  H17  1  0.27997163  0.71302678  0.00123816  1
