# generated using pymatgen
data_Fe13Co7
_symmetry_space_group_name_H-M   P1
_cell_length_a   6.21234442
_cell_length_b   6.21813490
_cell_length_c   6.98536312
_cell_angle_alpha   67.90394660
_cell_angle_beta   68.13673842
_cell_angle_gamma   80.93121370
_symmetry_Int_Tables_number   1
_chemical_formula_structural   Fe13Co7
_chemical_formula_sum   'Fe13 Co7'
_cell_volume   231.98956514
_cell_formula_units_Z   1
loop_
 _symmetry_equiv_pos_site_id
 _symmetry_equiv_pos_as_xyz
  1  'x, y, z'
loop_
 _atom_site_type_symbol
 _atom_site_label
 _atom_site_symmetry_multiplicity
 _atom_site_fract_x
 _atom_site_fract_y
 _atom_site_fract_z
 _atom_site_occupancy
  Fe  Fe0  1  0.02552976  0.51239310  0.13412608  1
  Fe  Fe1  1  0.07835691  0.06281432  0.43181749  1
  Fe  Fe2  1  0.12740533  0.61339427  0.73218203  1
  Fe  Fe3  1  0.32557493  0.81443094  0.93522156  1
  Fe  Fe4  1  0.47305195  0.46203604  0.83678895  1
  Fe  Fe5  1  0.57233328  0.56437358  0.43303723  1
  Fe  Fe6  1  0.62359131  0.11454708  0.73533275  1
  Fe  Fe7  1  0.72168797  0.21230402  0.33591239  1
  Fe  Fe8  1  0.77327785  0.76347825  0.63511288  1
  Fe  Fe9  1  0.82440777  0.31294543  0.93614156  1
  Fe  Fe10  1  0.87495730  0.86493022  0.23340104  1
  Fe  Fe11  1  0.92651273  0.41445988  0.53363146  1
  Fe  Fe12  1  0.97605004  0.96348206  0.83380290  1
  Co  Co13  1  0.17457714  0.16279957  0.03509710  1
  Co  Co14  1  0.22600376  0.71464505  0.33266500  1
  Co  Co15  1  0.27516405  0.26484719  0.63328183  1
  Co  Co16  1  0.37457658  0.36098682  0.23415320  1
  Co  Co17  1  0.42485647  0.91231439  0.53449577  1
  Co  Co18  1  0.52782392  0.01454662  0.13273380  1
  Co  Co19  1  0.67514539  0.66330308  0.03429455  1
