# generated using pymatgen
data_Fe13Co3H2
_symmetry_space_group_name_H-M   Cm
_cell_length_a   11.29841246
_cell_length_b   5.60862980
_cell_length_c   6.67341516
_cell_angle_alpha   90.00000000
_cell_angle_beta   115.03875013
_cell_angle_gamma   90.00000000
_symmetry_Int_Tables_number   8
_chemical_formula_structural   Fe13Co3H2
_chemical_formula_sum   'Fe26 Co6 H4'
_cell_volume   383.14306609
_cell_formula_units_Z   2
loop_
 _symmetry_equiv_pos_site_id
 _symmetry_equiv_pos_as_xyz
  1  'x, y, z'
  2  'x, -y, z'
  3  'x+1/2, y+1/2, z'
  4  'x+1/2, -y+1/2, z'
loop_
 _atom_site_type_symbol
 _atom_site_label
 _atom_site_symmetry_multiplicity
 _atom_site_fract_x
 _atom_site_fract_y
 _atom_site_fract_z
 _atom_site_occupancy
  Fe  Fe0  4  0.10202788  0.25365809  0.00840147  1
  Fe  Fe1  4  0.22710893  0.24237207  0.50682801  1
  Fe  Fe2  4  0.35127150  0.24946751  0.00878156  1
  Fe  Fe3  4  0.47520218  0.25270742  0.50718764  1
  Fe  Fe4  2  0.03831890  0.50000000  0.25888171  1
  Fe  Fe5  2  0.03964249  0.00000000  0.25745643  1
  Fe  Fe6  2  0.15739951  0.50000000  0.73045628  1
  Fe  Fe7  2  0.16282375  0.00000000  0.75496233  1
  Fe  Fe8  2  0.42090603  0.50000000  0.78501554  1
  Co  Co9  2  0.28852327  0.00000000  0.25642795  1
  Co  Co10  2  0.28920713  0.50000000  0.25769172  1
  Co  Co11  2  0.41460159  0.00000000  0.76161537  1
  H  H12  2  0.22255201  0.50000000  0.99876184  1
  H  H13  2  0.35310195  0.50000000  0.51658045  1
