# generated using pymatgen
data_Fe14CoGeN2
_symmetry_space_group_name_H-M   P1
_cell_length_a   4.72976217
_cell_length_b   5.08603507
_cell_length_c   9.45623606
_cell_angle_alpha   82.91979785
_cell_angle_beta   83.37420821
_cell_angle_gamma   63.01979835
_symmetry_Int_Tables_number   1
_chemical_formula_structural   Fe14CoGeN2
_chemical_formula_sum   'Fe14 Co1 Ge1 N2'
_cell_volume   200.71782434
_cell_formula_units_Z   1
loop_
 _symmetry_equiv_pos_site_id
 _symmetry_equiv_pos_as_xyz
  1  'x, y, z'
loop_
 _atom_site_type_symbol
 _atom_site_label
 _atom_site_symmetry_multiplicity
 _atom_site_fract_x
 _atom_site_fract_y
 _atom_site_fract_z
 _atom_site_occupancy
  Fe  Fe0  1  0.02968693  0.77487531  0.73410987  1
  Fe  Fe1  1  0.48960892  0.19303573  0.34695406  1
  Fe  Fe2  1  0.48964019  0.20459799  0.84618971  1
  Fe  Fe3  1  0.49110041  0.95262941  0.09990385  1
  Fe  Fe4  1  0.49343119  0.70727708  0.84612618  1
  Fe  Fe5  1  0.50512028  0.95463323  0.59964962  1
  Fe  Fe6  1  0.52888126  0.65681361  0.35505522  1
  Fe  Fe7  1  0.96196166  0.37436284  0.21026726  1
  Fe  Fe8  1  0.98138341  0.58021617  0.97081855  1
  Fe  Fe9  1  0.99085041  0.31362300  0.72390934  1
  Fe  Fe10  1  0.99458068  0.07593310  0.47445850  1
  Fe  Fe11  1  0.99468238  0.57493789  0.47341646  1
  Fe  Fe12  1  0.99714224  0.07052390  0.97158122  1
  Fe  Fe13  1  0.99725552  0.83458093  0.22498044  1
  Co  Co14  1  0.46134824  0.49441356  0.58904213  1
  Ge  Ge15  1  0.48745778  0.45303887  0.08883979  1
  N  N16  1  0.23781248  0.01820294  0.28830058  1
  N  N17  1  0.74849132  0.13539386  0.66212607  1
