# generated using pymatgen
data_Fe15CoC2
_symmetry_space_group_name_H-M   P1
_cell_length_a   4.22902501
_cell_length_b   5.08062731
_cell_length_c   9.44468715
_cell_angle_alpha   97.18010861
_cell_angle_beta   92.46856909
_cell_angle_gamma   94.54300088
_symmetry_Int_Tables_number   1
_chemical_formula_structural   Fe15CoC2
_chemical_formula_sum   'Fe15 Co1 C2'
_cell_volume   200.41751203
_cell_formula_units_Z   1
loop_
 _symmetry_equiv_pos_site_id
 _symmetry_equiv_pos_as_xyz
  1  'x, y, z'
loop_
 _atom_site_type_symbol
 _atom_site_label
 _atom_site_symmetry_multiplicity
 _atom_site_fract_x
 _atom_site_fract_y
 _atom_site_fract_z
 _atom_site_occupancy
  Fe  Fe0  1  0.34274807  0.83733544  0.20144972  1
  Fe  Fe1  1  0.34576134  0.33749629  0.70237131  1
  Fe  Fe2  1  0.37012547  0.05094990  0.93957531  1
  Fe  Fe3  1  0.37126682  0.55037227  0.43932050  1
  Fe  Fe4  1  0.38707854  0.30879055  0.18921850  1
  Fe  Fe5  1  0.38745786  0.05613464  0.44216114  1
  Fe  Fe6  1  0.38834135  0.80884481  0.69091465  1
  Fe  Fe7  1  0.86884840  0.91716425  0.06306464  1
  Fe  Fe8  1  0.87194913  0.67010647  0.31138486  1
  Fe  Fe9  1  0.87372729  0.41760309  0.56332323  1
  Fe  Fe10  1  0.87396760  0.16789306  0.81137442  1
  Fe  Fe11  1  0.88772506  0.17560967  0.31401366  1
  Fe  Fe12  1  0.89042795  0.67393175  0.81408163  1
  Fe  Fe13  1  0.91632638  0.38966120  0.05227536  1
  Fe  Fe14  1  0.91734228  0.88946506  0.55253847  1
  Co  Co15  1  0.38596937  0.55881555  0.94186367  1
  C  C16  1  0.62890368  0.61373991  0.12704445  1
  C  C17  1  0.63051264  0.11276393  0.62641211  1
