# generated using pymatgen
data_Fe16Co3
_symmetry_space_group_name_H-M   P1
_cell_length_a   4.73126426
_cell_length_b   6.21747594
_cell_length_c   8.43505062
_cell_angle_alpha   110.43120005
_cell_angle_beta   98.75610147
_cell_angle_gamma   102.01533582
_symmetry_Int_Tables_number   1
_chemical_formula_structural   Fe16Co3
_chemical_formula_sum   'Fe16 Co3'
_cell_volume   220.47379579
_cell_formula_units_Z   1
loop_
 _symmetry_equiv_pos_site_id
 _symmetry_equiv_pos_as_xyz
  1  'x, y, z'
loop_
 _atom_site_type_symbol
 _atom_site_label
 _atom_site_symmetry_multiplicity
 _atom_site_fract_x
 _atom_site_fract_y
 _atom_site_fract_z
 _atom_site_occupancy
  Fe  Fe0  1  0.00231985  0.36702958  0.58312153  1
  Fe  Fe1  1  0.05446742  0.57940016  0.89818289  1
  Fe  Fe2  1  0.10637792  0.78955959  0.21581319  1
  Fe  Fe3  1  0.21274792  0.20945701  0.84568374  1
  Fe  Fe4  1  0.26718344  0.42164280  0.16216342  1
  Fe  Fe5  1  0.31511957  0.63278094  0.47832390  1
  Fe  Fe6  1  0.42302482  0.05188617  0.10853791  1
  Fe  Fe7  1  0.47627707  0.26364476  0.42549797  1
  Fe  Fe8  1  0.52811103  0.47522350  0.74113081  1
  Fe  Fe9  1  0.58057530  0.68454775  0.05676033  1
  Fe  Fe10  1  0.63597250  0.89405828  0.37244641  1
  Fe  Fe11  1  0.68351649  0.10412775  0.68809273  1
  Fe  Fe12  1  0.73917546  0.31706974  0.00490752  1
  Fe  Fe13  1  0.84544226  0.73777331  0.63506968  1
  Fe  Fe14  1  0.89485626  0.94791941  0.95184057  1
  Fe  Fe15  1  0.94909505  0.15953419  0.26715167  1
  Co  Co16  1  0.15999529  0.00041712  0.53051708  1
  Co  Co17  1  0.36994936  0.84211424  0.79331152  1
  Co  Co18  1  0.79128558  0.52644146  0.32034965  1
