# generated using pymatgen
data_Fe16Co3Rh
_symmetry_space_group_name_H-M   'P 1'
_cell_length_a   6.26435081
_cell_length_b   6.27097955
_cell_length_c   7.02927402
_cell_angle_alpha   67.96409510
_cell_angle_beta   68.05466777
_cell_angle_gamma   80.94296916
_symmetry_Int_Tables_number   1
_chemical_formula_structural   Fe16Co3Rh
_chemical_formula_sum   'Fe16 Co3 Rh1'
_cell_volume   237.36891420
_cell_formula_units_Z   1
loop_
 _symmetry_equiv_pos_site_id
 _symmetry_equiv_pos_as_xyz
  1  'x, y, z'
loop_
 _atom_site_type_symbol
 _atom_site_label
 _atom_site_symmetry_multiplicity
 _atom_site_fract_x
 _atom_site_fract_y
 _atom_site_fract_z
 _atom_site_occupancy
  Fe  Fe0  1  0.09001978  0.88658886  0.34437946  1
  Fe  Fe1  1  0.63986140  0.93850974  0.64544237  1
  Fe  Fe2  1  0.39095213  0.18909082  0.14209228  1
  Fe  Fe3  1  0.94297463  0.24016080  0.43430306  1
  Fe  Fe4  1  0.19652524  0.98595615  0.94553071  1
  Fe  Fe5  1  0.59008826  0.38869547  0.34190627  1
  Fe  Fe6  1  0.74143068  0.03773631  0.24956236  1
  Fe  Fe7  1  0.89069734  0.68686268  0.14341167  1
  Fe  Fe8  1  0.99252954  0.78276771  0.74214535  1
  Fe  Fe9  1  0.44211917  0.73953709  0.44254892  1
  Fe  Fe10  1  0.79013304  0.58936883  0.54327315  1
  Fe  Fe11  1  0.34128105  0.63632951  0.84407790  1
  Fe  Fe12  1  0.24014066  0.53896880  0.24265594  1
  Fe  Fe13  1  0.48721744  0.29129534  0.73991593  1
  Fe  Fe14  1  0.14557612  0.44185302  0.63942929  1
  Fe  Fe15  1  0.29296431  0.08812507  0.54178902  1
  Co  Co16  1  0.04202338  0.33909805  0.04157685  1
  Co  Co17  1  0.53389125  0.83274334  0.04935434  1
  Co  Co18  1  0.68734479  0.49513153  0.94526522  1
  Rh  Rh19  1  0.84146977  0.13849479  0.84286586  1
