# generated using pymatgen
data_Fe16Co3
_symmetry_space_group_name_H-M   'P 1'
_cell_length_a   4.73126426
_cell_length_b   6.21747594
_cell_length_c   8.43676415
_cell_angle_alpha   74.26449654
_cell_angle_beta   75.21574287
_cell_angle_gamma   102.01533582
_symmetry_Int_Tables_number   1
_chemical_formula_structural   Fe16Co3
_chemical_formula_sum   'Fe16 Co3'
_cell_volume   220.47379579
_cell_formula_units_Z   1
loop_
 _symmetry_equiv_pos_site_id
 _symmetry_equiv_pos_as_xyz
  1  'x, y, z'
loop_
 _atom_site_type_symbol
 _atom_site_label
 _atom_site_symmetry_multiplicity
 _atom_site_fract_x
 _atom_site_fract_y
 _atom_site_fract_z
 _atom_site_occupancy
  Fe  Fe0  1  0.73426794  0.31216222  0.00490752  1
  Fe  Fe1  1  0.05077911  0.83814680  0.42549797  1
  Fe  Fe2  1  0.89056474  0.57374640  0.21581319  1
  Fe  Fe3  1  0.52381497  0.62778741  0.05676033  1
  Fe  Fe4  1  0.41919832  0.78390804  0.58312153  1
  Fe  Fe5  1  0.68194339  0.89238252  0.26715167  1
  Fe  Fe6  1  0.83679568  0.15445704  0.47832390  1
  Fe  Fe7  1  0.36706418  0.36377327  0.84568374  1
  Fe  Fe8  1  0.78698021  0.73409269  0.74113081  1
  Fe  Fe9  1  0.99542376  0.41603502  0.68809273  1
  Fe  Fe10  1  0.94301569  0.99607883  0.95184057  1
  Fe  Fe11  1  0.31448691  0.94334826  0.10853791  1
  Fe  Fe12  1  0.21037258  0.10270363  0.63506968  1
  Fe  Fe13  1  0.15628452  0.68121727  0.89818289  1
  Fe  Fe14  1  0.10502001  0.25947938  0.16216342  1
  Fe  Fe15  1  0.26352610  0.52161188  0.37244641  1
  Co  Co16  1  0.57663784  0.04880272  0.79331152  1
  Co  Co17  1  0.62947821  0.46990004  0.53051708  1
  Co  Co18  1  0.47093594  0.20609182  0.32034965  1
