# generated using pymatgen
data_Fe2H
_symmetry_space_group_name_H-M   Cm
_cell_length_a   8.30225793
_cell_length_b   3.75382196
_cell_length_c   8.15791257
_cell_angle_alpha   90.00000000
_cell_angle_beta   90.60293073
_cell_angle_gamma   90.00000000
_symmetry_Int_Tables_number   8
_chemical_formula_structural   Fe2H
_chemical_formula_sum   'Fe20 H10'
_cell_volume   254.22888472
_cell_formula_units_Z   10
loop_
 _symmetry_equiv_pos_site_id
 _symmetry_equiv_pos_as_xyz
  1  'x, y, z'
  2  'x, -y, z'
  3  'x+1/2, y+1/2, z'
  4  'x+1/2, -y+1/2, z'
loop_
 _atom_site_type_symbol
 _atom_site_label
 _atom_site_symmetry_multiplicity
 _atom_site_fract_x
 _atom_site_fract_y
 _atom_site_fract_z
 _atom_site_occupancy
  Fe  Fe0  2  0.02147665  0.50000000  0.97341306  1
  Fe  Fe1  2  0.02239344  0.00000000  0.46866292  1
  Fe  Fe2  2  0.12139986  0.50000000  0.27228017  1
  Fe  Fe3  2  0.12271741  0.00000000  0.77974352  1
  Fe  Fe4  2  0.21736855  0.00000000  0.06984574  1
  Fe  Fe5  2  0.21781830  0.50000000  0.57162845  1
  Fe  Fe6  2  0.32045899  0.00000000  0.37058046  1
  Fe  Fe7  2  0.32477791  0.50000000  0.87900970  1
  Fe  Fe8  2  0.42135079  0.00000000  0.67406497  1
  Fe  Fe9  2  0.42282803  0.50000000  0.16840084  1
  H  H10  2  0.12140789  0.50000000  0.77454944  1
  H  H11  2  0.22051893  0.00000000  0.57219052  1
  H  H12  2  0.32087044  0.50000000  0.37172505  1
  H  H13  2  0.42119837  0.50000000  0.67368523  1
  H  H14  2  0.42152433  0.00000000  0.17217555  1
