# generated using pymatgen
data_Fe2H
_symmetry_space_group_name_H-M   'P 1'
_cell_length_a   3.75382196
_cell_length_b   4.55572898
_cell_length_c   8.15791257
_cell_angle_alpha   90.54938198
_cell_angle_beta   90.00000000
_cell_angle_gamma   114.32985248
_symmetry_Int_Tables_number   1
_chemical_formula_structural   Fe2H
_chemical_formula_sum   'Fe10 H5'
_cell_volume   127.11444236
_cell_formula_units_Z   5
loop_
 _symmetry_equiv_pos_site_id
 _symmetry_equiv_pos_as_xyz
  1  'x, y, z'
loop_
 _atom_site_type_symbol
 _atom_site_label
 _atom_site_symmetry_multiplicity
 _atom_site_fract_x
 _atom_site_fract_y
 _atom_site_fract_z
 _atom_site_occupancy
  Fe  Fe0  1  0.02239344  0.04478688  0.46866292  1
  Fe  Fe1  1  0.82477791  0.64955582  0.87900970  1
  Fe  Fe2  1  0.12271741  0.24543482  0.77974352  1
  Fe  Fe3  1  0.62139986  0.24279972  0.27228017  1
  Fe  Fe4  1  0.32045899  0.64091799  0.37058046  1
  Fe  Fe5  1  0.52147665  0.04295329  0.97341306  1
  Fe  Fe6  1  0.92282803  0.84565606  0.16840084  1
  Fe  Fe7  1  0.71781830  0.43563661  0.57162845  1
  Fe  Fe8  1  0.42135079  0.84270158  0.67406497  1
  Fe  Fe9  1  0.21736855  0.43473711  0.06984574  1
  H  H10  1  0.82087044  0.64174087  0.37172505  1
  H  H11  1  0.22051893  0.44103786  0.57219052  1
  H  H12  1  0.62140789  0.24281579  0.77454944  1
  H  H13  1  0.92119837  0.84239674  0.67368523  1
  H  H14  1  0.42152433  0.84304867  0.17217555  1
