# generated using pymatgen
data_Fe3H
_symmetry_space_group_name_H-M   C2/m
_cell_length_a   7.49819287
_cell_length_b   3.98347365
_cell_length_c   2.53258791
_cell_angle_alpha   90.00000000
_cell_angle_beta   96.66834820
_cell_angle_gamma   90.00000000
_symmetry_Int_Tables_number   12
_chemical_formula_structural   Fe3H
_chemical_formula_sum   'Fe6 H2'
_cell_volume   75.13375216
_cell_formula_units_Z   2
loop_
 _symmetry_equiv_pos_site_id
 _symmetry_equiv_pos_as_xyz
  1  'x, y, z'
  2  '-x, -y, -z'
  3  '-x, y, -z'
  4  'x, -y, z'
  5  'x+1/2, y+1/2, z'
  6  '-x+1/2, -y+1/2, -z'
  7  '-x+1/2, y+1/2, -z'
  8  'x+1/2, -y+1/2, z'
loop_
 _atom_site_type_symbol
 _atom_site_label
 _atom_site_symmetry_multiplicity
 _atom_site_fract_x
 _atom_site_fract_y
 _atom_site_fract_z
 _atom_site_occupancy
  Fe  Fe0  4  0.17683722  0.50000000  0.14243750  1
  Fe  Fe1  2  0.00000000  0.00000000  0.50000000  1
  H  H2  2  0.00000000  0.50000000  0.50000000  1
