# generated using pymatgen
data_Fe3H2
_symmetry_space_group_name_H-M   C2/m
_cell_length_a   8.31024655
_cell_length_b   3.74296982
_cell_length_c   5.25416348
_cell_angle_alpha   90.00000000
_cell_angle_beta   107.95310879
_cell_angle_gamma   90.00000000
_symmetry_Int_Tables_number   12
_chemical_formula_structural   Fe3H2
_chemical_formula_sum   'Fe12 H8'
_cell_volume   155.47317476
_cell_formula_units_Z   4
loop_
 _symmetry_equiv_pos_site_id
 _symmetry_equiv_pos_as_xyz
  1  'x, y, z'
  2  '-x, -y, -z'
  3  '-x, y, -z'
  4  'x, -y, z'
  5  'x+1/2, y+1/2, z'
  6  '-x+1/2, -y+1/2, -z'
  7  '-x+1/2, y+1/2, -z'
  8  'x+1/2, -y+1/2, z'
loop_
 _atom_site_type_symbol
 _atom_site_label
 _atom_site_symmetry_multiplicity
 _atom_site_fract_x
 _atom_site_fract_y
 _atom_site_fract_z
 _atom_site_occupancy
  Fe  Fe0  4  0.00091541  0.50000000  0.74356640  1
  Fe  Fe1  4  0.16847344  0.00000000  0.08727134  1
  Fe  Fe2  4  0.16997666  0.00000000  0.58138171  1
  H  H3  4  0.00169873  0.00000000  0.25093139  1
  H  H4  4  0.16717421  0.50000000  0.08401842  1
