# generated using pymatgen
data_Fe3H2
_symmetry_space_group_name_H-M   'P 1'
_cell_length_a   3.74296982
_cell_length_b   4.55713783
_cell_length_c   5.25416348
_cell_angle_alpha   106.32269263
_cell_angle_beta   90.00000000
_cell_angle_gamma   114.24700071
_symmetry_Int_Tables_number   1
_chemical_formula_structural   Fe3H2
_chemical_formula_sum   'Fe6 H4'
_cell_volume   77.73658738
_cell_formula_units_Z   2
loop_
 _symmetry_equiv_pos_site_id
 _symmetry_equiv_pos_as_xyz
  1  'x, y, z'
loop_
 _atom_site_type_symbol
 _atom_site_label
 _atom_site_symmetry_multiplicity
 _atom_site_fract_x
 _atom_site_fract_y
 _atom_site_fract_z
 _atom_site_occupancy
  Fe  Fe0  1  0.16997666  0.33995331  0.58138171  1
  Fe  Fe1  1  0.83002334  0.66004669  0.41861829  1
  Fe  Fe2  1  0.50091541  0.00183082  0.74356640  1
  Fe  Fe3  1  0.83152656  0.66305311  0.91272866  1
  Fe  Fe4  1  0.16847344  0.33694689  0.08727134  1
  Fe  Fe5  1  0.49908459  0.99816918  0.25643360  1
  H  H6  1  0.33282579  0.66565159  0.91598158  1
  H  H7  1  0.00169873  0.00339746  0.25093139  1
  H  H8  1  0.99830127  0.99660254  0.74906861  1
  H  H9  1  0.66717421  0.33434841  0.08401842  1
