# generated using pymatgen
data_Fe3H
_symmetry_space_group_name_H-M   'P 1'
_cell_length_a   2.53258791
_cell_length_b   3.98347365
_cell_length_c   4.24531973
_cell_angle_alpha   117.97982410
_cell_angle_beta   95.88596576
_cell_angle_gamma   90.00000000
_symmetry_Int_Tables_number   1
_chemical_formula_structural   Fe3H
_chemical_formula_sum   'Fe3 H1'
_cell_volume   37.56687608
_cell_formula_units_Z   1
loop_
 _symmetry_equiv_pos_site_id
 _symmetry_equiv_pos_as_xyz
  1  'x, y, z'
loop_
 _atom_site_type_symbol
 _atom_site_label
 _atom_site_symmetry_multiplicity
 _atom_site_fract_x
 _atom_site_fract_y
 _atom_site_fract_z
 _atom_site_occupancy
  Fe  Fe0  1  0.85756250  0.32316278  0.64632555  1
  Fe  Fe1  1  0.50000000  0.00000000  0.00000000  1
  Fe  Fe2  1  0.14243750  0.67683722  0.35367445  1
  H  H3  1  0.50000000  0.50000000  0.00000000  1
