# generated using pymatgen
data_Fe4Co2H
_symmetry_space_group_name_H-M   Cm
_cell_length_a   8.98370497
_cell_length_b   2.79336062
_cell_length_c   6.13055700
_cell_angle_alpha   90.00000000
_cell_angle_beta   110.50580167
_cell_angle_gamma   90.00000000
_symmetry_Int_Tables_number   8
_chemical_formula_structural   Fe4Co2H
_chemical_formula_sum   'Fe8 Co4 H2'
_cell_volume   144.09655684
_cell_formula_units_Z   2
loop_
 _symmetry_equiv_pos_site_id
 _symmetry_equiv_pos_as_xyz
  1  'x, y, z'
  2  'x, -y, z'
  3  'x+1/2, y+1/2, z'
  4  'x+1/2, -y+1/2, z'
loop_
 _atom_site_type_symbol
 _atom_site_label
 _atom_site_symmetry_multiplicity
 _atom_site_fract_x
 _atom_site_fract_y
 _atom_site_fract_z
 _atom_site_occupancy
  Fe  Fe0  2  0.14888916  0.50000000  0.89488860  1
  Fe  Fe1  2  0.32014231  0.00000000  0.75681714  1
  Fe  Fe2  2  0.48113772  0.50000000  0.55796046  1
  Fe  Fe3  2  0.49468002  0.50000000  0.07514828  1
  Co  Co4  2  0.15477418  0.50000000  0.41015677  1
  Co  Co5  2  0.32174152  0.00000000  0.20523855  1
  H  H6  2  0.31381289  0.00000000  0.47360370  1
