# generated using pymatgen
data_Fe5CoH
_symmetry_space_group_name_H-M   Cmm2
_cell_length_a   3.12937580
_cell_length_b   3.89244925
_cell_length_c   12.06268303
_cell_angle_alpha   90.00000000
_cell_angle_beta   90.00000000
_cell_angle_gamma   90.00000000
_symmetry_Int_Tables_number   35
_chemical_formula_structural   Fe5CoH
_chemical_formula_sum   'Fe10 Co2 H2'
_cell_volume   146.93477569
_cell_formula_units_Z   2
loop_
 _symmetry_equiv_pos_site_id
 _symmetry_equiv_pos_as_xyz
  1  'x, y, z'
  2  '-x, -y, z'
  3  '-x, y, z'
  4  'x, -y, z'
  5  'x+1/2, y+1/2, z'
  6  '-x+1/2, -y+1/2, z'
  7  '-x+1/2, y+1/2, z'
  8  'x+1/2, -y+1/2, z'
loop_
 _atom_site_type_symbol
 _atom_site_label
 _atom_site_symmetry_multiplicity
 _atom_site_fract_x
 _atom_site_fract_y
 _atom_site_fract_z
 _atom_site_occupancy
  Fe  Fe0  2  0.00000000  0.00000000  0.29212062  1
  Fe  Fe1  2  0.00000000  0.00000000  0.61015388  1
  Fe  Fe2  2  0.00000000  0.00000000  0.94109023  1
  Fe  Fe3  2  0.00000000  0.50000000  0.12495364  1
  Fe  Fe4  2  0.00000000  0.50000000  0.77351888  1
  Co  Co5  2  0.00000000  0.50000000  0.45203617  1
  H  H6  2  0.00000000  0.50000000  0.98133944  1
