# generated using pymatgen
data_Fe5CoH6
_symmetry_space_group_name_H-M   C2/m
_cell_length_a   8.40570543
_cell_length_b   3.76618619
_cell_length_c   5.30988502
_cell_angle_alpha   90.00000000
_cell_angle_beta   108.34450447
_cell_angle_gamma   90.00000000
_symmetry_Int_Tables_number   12
_chemical_formula_structural   Fe5CoH6
_chemical_formula_sum   'Fe10 Co2 H12'
_cell_volume   159.55493538
_cell_formula_units_Z   2
loop_
 _symmetry_equiv_pos_site_id
 _symmetry_equiv_pos_as_xyz
  1  'x, y, z'
  2  '-x, -y, -z'
  3  '-x, y, -z'
  4  'x, -y, z'
  5  'x+1/2, y+1/2, z'
  6  '-x+1/2, -y+1/2, -z'
  7  '-x+1/2, y+1/2, -z'
  8  'x+1/2, -y+1/2, z'
loop_
 _atom_site_type_symbol
 _atom_site_label
 _atom_site_symmetry_multiplicity
 _atom_site_fract_x
 _atom_site_fract_y
 _atom_site_fract_z
 _atom_site_occupancy
  Fe  Fe0  4  0.16644586  0.50000000  0.33348853  1
  Fe  Fe1  4  0.16702715  0.50000000  0.83217994  1
  Fe  Fe2  2  0.00000000  0.00000000  0.00000000  1
  Co  Co3  2  0.00000000  0.00000000  0.50000000  1
  H  H4  4  0.16360892  0.00000000  0.33635048  1
  H  H5  4  0.16383254  0.00000000  0.82730827  1
  H  H6  2  0.00000000  0.50000000  0.00000000  1
  H  H7  2  0.00000000  0.50000000  0.50000000  1
