# generated using pymatgen
data_Fe5CoH5
_symmetry_space_group_name_H-M   'P 1'
_cell_length_a   2.64567545
_cell_length_b   4.57900664
_cell_length_c   7.00205249
_cell_angle_alpha   76.98868326
_cell_angle_beta   79.11015357
_cell_angle_gamma   73.20837531
_symmetry_Int_Tables_number   1
_chemical_formula_structural   Fe5CoH5
_chemical_formula_sum   'Fe5 Co1 H5'
_cell_volume   78.42405176
_cell_formula_units_Z   1
loop_
 _symmetry_equiv_pos_site_id
 _symmetry_equiv_pos_as_xyz
  1  'x, y, z'
loop_
 _atom_site_type_symbol
 _atom_site_label
 _atom_site_symmetry_multiplicity
 _atom_site_fract_x
 _atom_site_fract_y
 _atom_site_fract_z
 _atom_site_occupancy
  Fe  Fe0  1  0.90411155  0.97537719  0.21639971  1
  Fe  Fe1  1  0.90634090  0.48864940  0.69866881  1
  Fe  Fe2  1  0.57109040  0.98387686  0.87394234  1
  Fe  Fe3  1  0.24266127  0.97798147  0.53669599  1
  Fe  Fe4  1  0.23805548  0.48108455  0.04280449  1
  Co  Co5  1  0.56739326  0.48840671  0.37680678  1
  H  H6  1  0.57301707  0.72250859  0.13145727  1
  H  H7  1  0.90443313  0.23323341  0.95790033  1
  H  H8  1  0.23992597  0.73090619  0.78924188  1
  H  H9  1  0.57133366  0.23976979  0.61756290  1
  H  H10  1  0.22876427  0.24712850  0.29534296  1
