# generated using pymatgen
data_Fe5CoH5
_symmetry_space_group_name_H-M   Cm
_cell_length_a   8.76753150
_cell_length_b   2.64567545
_cell_length_c   7.45377345
_cell_angle_alpha   90.00000000
_cell_angle_beta   114.88270749
_cell_angle_gamma   90.00000000
_symmetry_Int_Tables_number   8
_chemical_formula_structural   Fe5CoH5
_chemical_formula_sum   'Fe10 Co2 H10'
_cell_volume   156.84810352
_cell_formula_units_Z   2
loop_
 _symmetry_equiv_pos_site_id
 _symmetry_equiv_pos_as_xyz
  1  'x, y, z'
  2  'x, -y, z'
  3  'x+1/2, y+1/2, z'
  4  'x+1/2, -y+1/2, z'
loop_
 _atom_site_type_symbol
 _atom_site_label
 _atom_site_symmetry_multiplicity
 _atom_site_fract_x
 _atom_site_fract_y
 _atom_site_fract_z
 _atom_site_occupancy
  Fe  Fe0  2  0.09365910  0.00000000  0.69866881  1
  Fe  Fe1  2  0.09588845  0.00000000  0.21639971  1
  Fe  Fe2  2  0.25733873  0.50000000  0.53669599  1
  Fe  Fe3  2  0.26194452  0.50000000  0.04280449  1
  Fe  Fe4  2  0.42890960  0.00000000  0.87394234  1
  Co  Co5  2  0.43260674  0.00000000  0.37680678  1
  H  H6  2  0.09556687  0.00000000  0.95790033  1
  H  H7  2  0.26007403  0.50000000  0.78924188  1
  H  H8  2  0.27123573  0.50000000  0.29534296  1
  H  H9  2  0.42698293  0.00000000  0.13145727  1
  H  H10  2  0.42866634  0.00000000  0.61756290  1
