# generated using pymatgen
data_Fe5CoH
_symmetry_space_group_name_H-M   'P 1'
_cell_length_a   2.49720614
_cell_length_b   2.49720614
_cell_length_c   12.06268303
_cell_angle_alpha   89.99319099
_cell_angle_beta   89.99319099
_cell_angle_gamma   77.59582041
_symmetry_Int_Tables_number   1
_chemical_formula_structural   Fe5CoH
_chemical_formula_sum   'Fe5 Co1 H1'
_cell_volume   73.46738699
_cell_formula_units_Z   1
loop_
 _symmetry_equiv_pos_site_id
 _symmetry_equiv_pos_as_xyz
  1  'x, y, z'
loop_
 _atom_site_type_symbol
 _atom_site_label
 _atom_site_symmetry_multiplicity
 _atom_site_fract_x
 _atom_site_fract_y
 _atom_site_fract_z
 _atom_site_occupancy
  Fe  Fe0  1  0.83069642  0.83069642  0.94109023  1
  Fe  Fe1  1  0.83478967  0.83478967  0.29212062  1
  Fe  Fe2  1  0.33561808  0.33561808  0.77351888  1
  Fe  Fe3  1  0.83656693  0.83656693  0.61015388  1
  Fe  Fe4  1  0.33414568  0.33414568  0.12495364  1
  Co  Co5  1  0.33571244  0.33571244  0.45203617  1
  H  H6  1  0.34192183  0.34192183  0.98133944  1
