# generated using pymatgen
data_Fe6CoH
_symmetry_space_group_name_H-M   'P 1'
_cell_length_a   2.82417944
_cell_length_b   2.82417944
_cell_length_c   10.75681074
_cell_angle_alpha   97.54321888
_cell_angle_beta   97.54321888
_cell_angle_gamma   90.00000000
_symmetry_Int_Tables_number   1
_chemical_formula_structural   Fe6CoH
_chemical_formula_sum   'Fe6 Co1 H1'
_cell_volume   84.30473100
_cell_formula_units_Z   1
loop_
 _symmetry_equiv_pos_site_id
 _symmetry_equiv_pos_as_xyz
  1  'x, y, z'
loop_
 _atom_site_type_symbol
 _atom_site_label
 _atom_site_symmetry_multiplicity
 _atom_site_fract_x
 _atom_site_fract_y
 _atom_site_fract_z
 _atom_site_occupancy
  Fe  Fe0  1  0.47062450  0.47062450  0.94124900  1
  Fe  Fe1  1  0.74461740  0.74461740  0.48923479  1
  Fe  Fe2  1  0.90330793  0.90330793  0.80661586  1
  Fe  Fe3  1  0.04028441  0.04028441  0.08056882  1
  Fe  Fe4  1  0.17617491  0.17617491  0.35234982  1
  Fe  Fe5  1  0.32352346  0.32352346  0.64704692  1
  Co  Co6  1  0.60794014  0.60794014  0.21588028  1
  H  H7  1  0.82376900  0.82376900  0.64753800  1
