# generated using pymatgen
data_Fe7CoH2
_symmetry_space_group_name_H-M   P1
_cell_length_a   4.74142574
_cell_length_b   6.13202863
_cell_length_c   7.36084262
_cell_angle_alpha   101.99159288
_cell_angle_beta   92.75093977
_cell_angle_gamma   108.86393707
_symmetry_Int_Tables_number   1
_chemical_formula_structural   Fe7CoH2
_chemical_formula_sum   'Fe14 Co2 H4'
_cell_volume   196.55969011
_cell_formula_units_Z   2
loop_
 _symmetry_equiv_pos_site_id
 _symmetry_equiv_pos_as_xyz
  1  'x, y, z'
loop_
 _atom_site_type_symbol
 _atom_site_label
 _atom_site_symmetry_multiplicity
 _atom_site_fract_x
 _atom_site_fract_y
 _atom_site_fract_z
 _atom_site_occupancy
  Fe  Fe0  1  0.01756100  0.48750593  0.78973324  1
  Fe  Fe1  1  0.01833008  0.02522559  0.78669486  1
  Fe  Fe2  1  0.14810482  0.44293414  0.41525609  1
  Fe  Fe3  1  0.15241235  0.95115957  0.41739712  1
  Fe  Fe4  1  0.27912939  0.90427415  0.03919194  1
  Fe  Fe5  1  0.27985054  0.36828993  0.04262077  1
  Fe  Fe6  1  0.40339262  0.80006416  0.66235629  1
  Fe  Fe7  1  0.40746422  0.34285749  0.66394639  1
  Fe  Fe8  1  0.52535149  0.76017931  0.29325755  1
  Fe  Fe9  1  0.53120246  0.26156179  0.29305060  1
  Fe  Fe10  1  0.64864695  0.19622239  0.91410172  1
  Fe  Fe11  1  0.65096880  0.69706488  0.91528083  1
  Fe  Fe12  1  0.89536640  0.05269180  0.16530007  1
  Fe  Fe13  1  0.89801608  0.59209037  0.16731796  1
  Co  Co14  1  0.77311754  0.13302062  0.53763316  1
  Co  Co15  1  0.77790031  0.63493723  0.53798970  1
  H  H16  1  0.08412588  0.77352677  0.79163625  1
  H  H17  1  0.22415581  0.62455706  0.04734749  1
  H  H18  1  0.36205513  0.06064026  0.65943550  1
  H  H19  1  0.94458775  0.33731438  0.18124738  1
