# generated using pymatgen
data_Fe7H5
_symmetry_space_group_name_H-M   R3m
_cell_length_a   2.62396185
_cell_length_b   2.62396185
_cell_length_c   46.19894637
_cell_angle_alpha   90.00000000
_cell_angle_beta   90.00000000
_cell_angle_gamma   120.00000000
_symmetry_Int_Tables_number   160
_chemical_formula_structural   Fe7H5
_chemical_formula_sum   'Fe21 H15'
_cell_volume   275.47217405
_cell_formula_units_Z   3
loop_
 _symmetry_equiv_pos_site_id
 _symmetry_equiv_pos_as_xyz
  1  'x, y, z'
  2  '-y, x-y, z'
  3  '-x+y, -x, z'
  4  '-y, -x, z'
  5  '-x+y, y, z'
  6  'x, x-y, z'
  7  'x+2/3, y+1/3, z+1/3'
  8  '-y+2/3, x-y+1/3, z+1/3'
  9  '-x+y+2/3, -x+1/3, z+1/3'
  10  '-y+2/3, -x+1/3, z+1/3'
  11  '-x+y+2/3, y+1/3, z+1/3'
  12  'x+2/3, x-y+1/3, z+1/3'
  13  'x+1/3, y+2/3, z+2/3'
  14  '-y+1/3, x-y+2/3, z+2/3'
  15  '-x+y+1/3, -x+2/3, z+2/3'
  16  '-y+1/3, -x+2/3, z+2/3'
  17  '-x+y+1/3, y+2/3, z+2/3'
  18  'x+1/3, x-y+2/3, z+2/3'
loop_
 _atom_site_type_symbol
 _atom_site_label
 _atom_site_symmetry_multiplicity
 _atom_site_fract_x
 _atom_site_fract_y
 _atom_site_fract_z
 _atom_site_occupancy
  Fe  Fe0  3  0.00000000  0.00000000  0.03708582  1
  Fe  Fe1  3  0.00000000  0.00000000  0.18020697  1
  Fe  Fe2  3  0.00000000  0.00000000  0.27877291  1
  Fe  Fe3  3  0.00000000  0.00000000  0.46602347  1
  Fe  Fe4  3  0.00000000  0.00000000  0.65950291  1
  Fe  Fe5  3  0.00000000  0.00000000  0.75187562  1
  Fe  Fe6  3  0.00000000  0.00000000  0.89236023  1
  H  H7  3  0.00000000  0.00000000  0.10898781  1
  H  H8  3  0.00000000  0.00000000  0.24244692  1
  H  H9  3  0.00000000  0.00000000  0.39306868  1
  H  H10  3  0.00000000  0.00000000  0.82335409  1
  H  H11  3  0.00000000  0.00000000  0.96953688  1
