# generated using pymatgen
data_Fe7H5
_symmetry_space_group_name_H-M   'P 1'
_cell_length_a   2.62396185
_cell_length_b   2.62396185
_cell_length_c   15.47365442
_cell_angle_alpha   85.14740426
_cell_angle_beta   85.14740426
_cell_angle_gamma   60.01394937
_symmetry_Int_Tables_number   1
_chemical_formula_structural   Fe7H5
_chemical_formula_sum   'Fe7 H5'
_cell_volume   91.83696028
_cell_formula_units_Z   1
loop_
 _symmetry_equiv_pos_site_id
 _symmetry_equiv_pos_as_xyz
  1  'x, y, z'
loop_
 _atom_site_type_symbol
 _atom_site_label
 _atom_site_symmetry_multiplicity
 _atom_site_fract_x
 _atom_site_fract_y
 _atom_site_fract_z
 _atom_site_occupancy
  Fe  Fe0  1  0.72372839  0.72372839  0.66016674  1
  Fe  Fe1  1  0.86652895  0.86652895  0.22598996  1
  Fe  Fe2  1  0.01192336  0.01192336  0.79662652  1
  Fe  Fe3  1  0.58226149  0.58226149  0.08162058  1
  Fe  Fe4  1  0.48940190  0.48940190  0.35873869  1
  Fe  Fe5  1  0.29728315  0.29728315  0.93917704  1
  Fe  Fe6  1  0.10884385  0.10884385  0.50092870  1
  H  H7  1  0.07382321  0.07382321  0.60990666  1
  H  H8  1  0.93969790  0.93969790  0.01028401  1
  H  H9  1  0.65485606  0.65485606  0.86718516  1
  H  H10  1  0.22291972  0.22291972  0.15804139  1
  H  H11  1  0.79944942  0.79944942  0.42863680  1
