# generated using pymatgen
data_Fe8CoH
_symmetry_space_group_name_H-M   'P 1'
_cell_length_a   2.82145309
_cell_length_b   2.82145309
_cell_length_c   13.54147072
_cell_angle_alpha   95.96624955
_cell_angle_beta   84.02286962
_cell_angle_gamma   89.92235218
_symmetry_Int_Tables_number   1
_chemical_formula_structural   Fe8CoH
_chemical_formula_sum   'Fe8 Co1 H1'
_cell_volume   106.62333858
_cell_formula_units_Z   1
loop_
 _symmetry_equiv_pos_site_id
 _symmetry_equiv_pos_as_xyz
  1  'x, y, z'
loop_
 _atom_site_type_symbol
 _atom_site_label
 _atom_site_symmetry_multiplicity
 _atom_site_fract_x
 _atom_site_fract_y
 _atom_site_fract_z
 _atom_site_occupancy
  Fe  Fe0  1  0.45424756  0.47078238  0.01653482  1
  Fe  Fe1  1  0.90022179  0.02390622  0.12368443  1
  Fe  Fe2  1  0.67727502  0.24609774  0.56882272  1
  Fe  Fe3  1  0.34637891  0.57732006  0.23094115  1
  Fe  Fe4  1  0.11452384  0.81003391  0.69551007  1
  Fe  Fe5  1  0.00852114  0.91617065  0.90764952  1
  Fe  Fe6  1  0.79252402  0.13058057  0.33805654  1
  Fe  Fe7  1  0.23954745  0.68396957  0.44442211  1
  Co  Co8  1  0.56185328  0.36214859  0.80029532  1
  H  H9  1  0.17501704  0.74468758  0.56967054  1
