# generated using pymatgen
data_Fe8CoH
_symmetry_space_group_name_H-M   I4mm
_cell_length_a   2.82145309
_cell_length_b   2.82145309
_cell_length_c   26.78779757
_cell_angle_alpha   90.00000000
_cell_angle_beta   90.00000000
_cell_angle_gamma   90.00000000
_symmetry_Int_Tables_number   107
_chemical_formula_structural   Fe8CoH
_chemical_formula_sum   'Fe16 Co2 H2'
_cell_volume   213.24687492
_cell_formula_units_Z   2
loop_
 _symmetry_equiv_pos_site_id
 _symmetry_equiv_pos_as_xyz
  1  'x, y, z'
  2  '-y, x, z'
  3  '-x, -y, z'
  4  'y, -x, z'
  5  '-x, y, z'
  6  'y, x, z'
  7  'x, -y, z'
  8  '-y, -x, z'
  9  'x+1/2, y+1/2, z+1/2'
  10  '-y+1/2, x+1/2, z+1/2'
  11  '-x+1/2, -y+1/2, z+1/2'
  12  'y+1/2, -x+1/2, z+1/2'
  13  '-x+1/2, y+1/2, z+1/2'
  14  'y+1/2, x+1/2, z+1/2'
  15  'x+1/2, -y+1/2, z+1/2'
  16  '-y+1/2, -x+1/2, z+1/2'
loop_
 _atom_site_type_symbol
 _atom_site_label
 _atom_site_symmetry_multiplicity
 _atom_site_fract_x
 _atom_site_fract_y
 _atom_site_fract_z
 _atom_site_occupancy
  Fe  Fe0  2  0.00000000  0.00000000  0.02384315  1
  Fe  Fe1  2  0.00000000  0.00000000  0.13102921  1
  Fe  Fe2  2  0.00000000  0.00000000  0.24641230  1
  Fe  Fe3  2  0.00000000  0.00000000  0.47026835  1
  Fe  Fe4  2  0.00000000  0.00000000  0.57747151  1
  Fe  Fe5  2  0.00000000  0.00000000  0.68421199  1
  Fe  Fe6  2  0.00000000  0.00000000  0.80975597  1
  Fe  Fe7  2  0.00000000  0.00000000  0.91582569  1
  Co  Co8  2  0.00000000  0.00000000  0.36214859  1
  H  H9  2  0.00000000  0.00000000  0.74683620  1
