# generated using pymatgen
data_Fe8CoNi
_symmetry_space_group_name_H-M   'P 1'
_cell_length_a   4.05209422
_cell_length_b   4.95944962
_cell_length_c   6.23438784
_cell_angle_alpha   97.78025674
_cell_angle_beta   108.96432196
_cell_angle_gamma   90.00000000
_symmetry_Int_Tables_number   1
_chemical_formula_structural   Fe8CoNi
_chemical_formula_sum   'Fe8 Co1 Ni1'
_cell_volume   117.26659758
_cell_formula_units_Z   1
loop_
 _symmetry_equiv_pos_site_id
 _symmetry_equiv_pos_as_xyz
  1  'x, y, z'
loop_
 _atom_site_type_symbol
 _atom_site_label
 _atom_site_symmetry_multiplicity
 _atom_site_fract_x
 _atom_site_fract_y
 _atom_site_fract_z
 _atom_site_occupancy
  Fe  Fe0  1  0.94518526  0.64285701  0.89037051  1
  Fe  Fe1  1  0.34457986  0.44323361  0.68915973  1
  Fe  Fe2  1  0.14491670  0.04375663  0.28983341  1
  Fe  Fe3  1  0.54569469  0.84342963  0.09138937  1
  Fe  Fe4  1  0.94466436  0.14070357  0.88932871  1
  Fe  Fe5  1  0.74613593  0.24177386  0.49227185  1
  Fe  Fe6  1  0.34495110  0.94185604  0.68990220  1
  Fe  Fe7  1  0.14659883  0.54620060  0.29319767  1
  Co  Co8  1  0.74455533  0.74204348  0.48911066  1
  Ni  Ni9  1  0.54575733  0.34414694  0.09151467  1
