# generated using pymatgen
data_Fe8H3
_symmetry_space_group_name_H-M   'P 1'
_cell_length_a   3.89603578
_cell_length_b   3.92323695
_cell_length_c   7.15404588
_cell_angle_alpha   74.08582904
_cell_angle_beta   74.19906354
_cell_angle_gamma   90.00000000
_symmetry_Int_Tables_number   1
_chemical_formula_structural   Fe8H3
_chemical_formula_sum   'Fe8 H3'
_cell_volume   100.85559026
_cell_formula_units_Z   1
loop_
 _symmetry_equiv_pos_site_id
 _symmetry_equiv_pos_as_xyz
  1  'x, y, z'
loop_
 _atom_site_type_symbol
 _atom_site_label
 _atom_site_symmetry_multiplicity
 _atom_site_fract_x
 _atom_site_fract_y
 _atom_site_fract_z
 _atom_site_occupancy
  Fe  Fe0  1  0.63284076  0.63284076  0.73431847  1
  Fe  Fe1  1  0.36715924  0.36715924  0.26568153  1
  Fe  Fe2  1  0.74326393  0.24326393  0.51347214  1
  Fe  Fe3  1  0.12658817  0.12658817  0.74682366  1
  Fe  Fe4  1  0.50000000  0.00000000  0.00000000  1
  Fe  Fe5  1  0.25673607  0.75673607  0.48652786  1
  Fe  Fe6  1  0.87341183  0.87341183  0.25317634  1
  Fe  Fe7  1  0.00000000  0.50000000  0.00000000  1
  H  H8  1  0.50000000  0.50000000  0.00000000  1
  H  H9  1  0.87269510  0.37269510  0.25460981  1
  H  H10  1  0.12730490  0.62730490  0.74539019  1
