# generated using pymatgen
data_Fe9Co
_symmetry_space_group_name_H-M   'P 1'
_cell_length_a   2.81366840
_cell_length_b   8.46401462
_cell_length_c   10.17052071
_cell_angle_alpha   98.13535441
_cell_angle_beta   97.95091529
_cell_angle_gamma   90.00000000
_symmetry_Int_Tables_number   1
_chemical_formula_structural   Fe9Co
_chemical_formula_sum   'Fe18 Co2'
_cell_volume   237.42048080
_cell_formula_units_Z   2
loop_
 _symmetry_equiv_pos_site_id
 _symmetry_equiv_pos_as_xyz
  1  'x, y, z'
loop_
 _atom_site_type_symbol
 _atom_site_label
 _atom_site_symmetry_multiplicity
 _atom_site_fract_x
 _atom_site_fract_y
 _atom_site_fract_z
 _atom_site_occupancy
  Fe  Fe0  1  0.87155443  0.30888421  0.74310885  1
  Fe  Fe1  1  0.86616286  0.96163770  0.73232572  1
  Fe  Fe2  1  0.29502802  0.76738145  0.59005604  1
  Fe  Fe3  1  0.57863305  0.19888958  0.15726610  1
  Fe  Fe4  1  0.57798835  0.85773858  0.15597670  1
  Fe  Fe5  1  0.72445025  0.91451978  0.44890050  1
  Fe  Fe6  1  0.15077416  0.38803463  0.30154832  1
  Fe  Fe7  1  0.29619613  0.10858326  0.59239226  1
  Fe  Fe8  1  0.72285413  0.24374078  0.44570826  1
  Fe  Fe9  1  0.43670879  0.81750463  0.87341758  1
  Fe  Fe10  1  0.86959236  0.61745997  0.73918473  1
  Fe  Fe11  1  0.14986629  0.05220220  0.29973257  1
  Fe  Fe12  1  0.15126696  0.72154857  0.30253392  1
  Fe  Fe13  1  0.00271040  0.65770024  0.00542081  1
  Fe  Fe14  1  0.29267640  0.43515140  0.58535281  1
  Fe  Fe15  1  0.72329555  0.57913038  0.44659110  1
  Fe  Fe16  1  0.00794514  0.00615825  0.01589029  1
  Fe  Fe17  1  0.00501601  0.34825898  0.01003201  1
  Co  Co18  1  0.43757253  0.15018328  0.87514507  1
  Co  Co19  1  0.58065544  0.53063764  0.16131087  1
