# generated using pymatgen
data_Fe9Co
_symmetry_space_group_name_H-M   Cm
_cell_length_a   20.14550165
_cell_length_b   2.81366840
_cell_length_c   8.46401462
_cell_angle_alpha   90.00000000
_cell_angle_beta   98.21486210
_cell_angle_gamma   90.00000000
_symmetry_Int_Tables_number   8
_chemical_formula_structural   Fe9Co
_chemical_formula_sum   'Fe36 Co4'
_cell_volume   474.84096161
_cell_formula_units_Z   4
loop_
 _symmetry_equiv_pos_site_id
 _symmetry_equiv_pos_as_xyz
  1  'x, y, z'
  2  'x, -y, z'
  3  'x+1/2, y+1/2, z'
  4  'x+1/2, -y+1/2, z'
loop_
 _atom_site_type_symbol
 _atom_site_label
 _atom_site_symmetry_multiplicity
 _atom_site_fract_x
 _atom_site_fract_y
 _atom_site_fract_z
 _atom_site_occupancy
  Fe  Fe0  2  0.00271040  0.00000000  0.65770024  1
  Fe  Fe1  2  0.00501601  0.00000000  0.34825898  1
  Fe  Fe2  2  0.00794514  0.00000000  0.00615825  1
  Fe  Fe3  2  0.07798835  0.50000000  0.85773858  1
  Fe  Fe4  2  0.07863305  0.50000000  0.19888958  1
  Fe  Fe5  2  0.14986629  0.00000000  0.05220220  1
  Fe  Fe6  2  0.15077416  0.00000000  0.38803463  1
  Fe  Fe7  2  0.15126696  0.00000000  0.72154857  1
  Fe  Fe8  2  0.22285413  0.50000000  0.24374078  1
  Fe  Fe9  2  0.22329555  0.50000000  0.57913038  1
  Fe  Fe10  2  0.22445025  0.50000000  0.91451978  1
  Fe  Fe11  2  0.29267640  0.00000000  0.43515140  1
  Fe  Fe12  2  0.29502802  0.00000000  0.76738145  1
  Fe  Fe13  2  0.29619613  0.00000000  0.10858326  1
  Fe  Fe14  2  0.36616286  0.50000000  0.96163770  1
  Fe  Fe15  2  0.36959236  0.50000000  0.61745997  1
  Fe  Fe16  2  0.37155443  0.50000000  0.30888421  1
  Fe  Fe17  2  0.43670879  0.00000000  0.81750463  1
  Co  Co18  2  0.08065544  0.50000000  0.53063764  1
  Co  Co19  2  0.43757253  0.00000000  0.15018328  1
