# generated using pymatgen
data_Fe9H
_symmetry_space_group_name_H-M   P-1
_cell_length_a   4.09536850
_cell_length_b   4.71113830
_cell_length_c   6.17782591
_cell_angle_alpha   70.31690425
_cell_angle_beta   72.40783394
_cell_angle_gamma   88.86672663
_symmetry_Int_Tables_number   2
_chemical_formula_structural   Fe9H
_chemical_formula_sum   'Fe9 H1'
_cell_volume   106.53311839
_cell_formula_units_Z   1
loop_
 _symmetry_equiv_pos_site_id
 _symmetry_equiv_pos_as_xyz
  1  'x, y, z'
  2  '-x, -y, -z'
loop_
 _atom_site_type_symbol
 _atom_site_label
 _atom_site_symmetry_multiplicity
 _atom_site_fract_x
 _atom_site_fract_y
 _atom_site_fract_z
 _atom_site_occupancy
  Fe  Fe0  2  0.05197765  0.77563770  0.88792353  1
  Fe  Fe1  2  0.13401945  0.31751910  0.68191345  1
  Fe  Fe2  2  0.28109195  0.88988795  0.44419015  1
  Fe  Fe3  2  0.39618915  0.44382189  0.22096661  1
  Fe  Fe4  1  0.50000000  0.00000000  0.00000000  1
  H  H5  1  0.50000000  0.50000000  0.50000000  1
