# generated using pymatgen
data_Fe9H2
_symmetry_space_group_name_H-M   'P 1'
_cell_length_a   3.98063600
_cell_length_b   4.69885460
_cell_length_c   6.81567024
_cell_angle_alpha   79.87348142
_cell_angle_beta   73.02193049
_cell_angle_gamma   64.95261758
_symmetry_Int_Tables_number   1
_chemical_formula_structural   Fe9H2
_chemical_formula_sum   'Fe9 H2'
_cell_volume   110.26019657
_cell_formula_units_Z   1
loop_
 _symmetry_equiv_pos_site_id
 _symmetry_equiv_pos_as_xyz
  1  'x, y, z'
loop_
 _atom_site_type_symbol
 _atom_site_label
 _atom_site_symmetry_multiplicity
 _atom_site_fract_x
 _atom_site_fract_y
 _atom_site_fract_z
 _atom_site_occupancy
  Fe  Fe0  1  0.67047337  0.71912261  0.94279541  1
  Fe  Fe1  1  0.00000000  0.50000000  0.50000000  1
  Fe  Fe2  1  0.01749417  0.14992713  0.81599974  1
  Fe  Fe3  1  0.65042702  0.40409762  0.29554447  1
  Fe  Fe4  1  0.34957298  0.59590238  0.70445553  1
  Fe  Fe5  1  0.32802780  0.95168066  0.39200810  1
  Fe  Fe6  1  0.98250583  0.85007287  0.18400026  1
  Fe  Fe7  1  0.67197220  0.04831934  0.60799190  1
  Fe  Fe8  1  0.32952663  0.28087739  0.05720459  1
  H  H9  1  0.18502165  0.71406567  0.94548966  1
  H  H10  1  0.81497835  0.28593433  0.05451034  1
