# generated using pymatgen
data_FeH
_symmetry_space_group_name_H-M   'P 1'
_cell_length_a   2.64291412
_cell_length_b   4.61617382
_cell_length_c   7.19999238
_cell_angle_alpha   79.34043426
_cell_angle_beta   79.47897962
_cell_angle_gamma   73.45814776
_symmetry_Int_Tables_number   1
_chemical_formula_structural   FeH
_chemical_formula_sum   'Fe6 H6'
_cell_volume   81.96149962
_cell_formula_units_Z   6
loop_
 _symmetry_equiv_pos_site_id
 _symmetry_equiv_pos_as_xyz
  1  'x, y, z'
loop_
 _atom_site_type_symbol
 _atom_site_label
 _atom_site_symmetry_multiplicity
 _atom_site_fract_x
 _atom_site_fract_y
 _atom_site_fract_z
 _atom_site_occupancy
  Fe  Fe0  1  0.29847471  0.14797095  0.56978205  1
  Fe  Fe1  1  0.63977142  0.15029090  0.88406472  1
  Fe  Fe2  1  0.30392912  0.64854109  0.05716320  1
  Fe  Fe3  1  0.63741882  0.63371338  0.40431693  1
  Fe  Fe4  1  0.97238577  0.64486330  0.72209126  1
  Fe  Fe5  1  0.97278912  0.12062713  0.24718421  1
  H  H6  1  0.96674564  0.44009666  0.93959276  1
  H  H7  1  0.65934997  0.82837807  0.16818540  1
  H  H8  1  0.28237383  0.39505364  0.35036297  1
  H  H9  1  0.47292936  0.26011743  0.10729072  1
  H  H10  1  0.97419159  0.88066424  0.48513671  1
  H  H11  1  0.30393493  0.89137335  0.81388417  1
