# generated using pymatgen
data_FeH
_symmetry_space_group_name_H-M   Cm
_cell_length_a   8.85025098
_cell_length_b   2.64291412
_cell_length_c   7.80085016
_cell_angle_alpha   90.00000000
_cell_angle_beta   116.05408355
_cell_angle_gamma   90.00000000
_symmetry_Int_Tables_number   8
_chemical_formula_structural   FeH
_chemical_formula_sum   'Fe12 H12'
_cell_volume   163.92325808
_cell_formula_units_Z   12
loop_
 _symmetry_equiv_pos_site_id
 _symmetry_equiv_pos_as_xyz
  1  'x, y, z'
  2  'x, -y, z'
  3  'x+1/2, y+1/2, z'
  4  'x+1/2, -y+1/2, z'
loop_
 _atom_site_type_symbol
 _atom_site_label
 _atom_site_symmetry_multiplicity
 _atom_site_fract_x
 _atom_site_fract_y
 _atom_site_fract_z
 _atom_site_occupancy
  Fe  Fe0  2  0.15874311  0.50000000  0.75281579  1
  Fe  Fe1  2  0.15917151  0.50000000  0.27790874  1
  Fe  Fe2  2  0.32363364  0.00000000  0.59568307  1
  Fe  Fe3  2  0.32547098  0.00000000  0.11593528  1
  Fe  Fe4  2  0.48377229  0.50000000  0.43021795  1
  Fe  Fe5  2  0.48979665  0.50000000  0.94283680  1
  H  H6  2  0.15280408  0.50000000  0.06040724  1
  H  H7  2  0.15894472  0.00000000  0.89270928  1
  H  H8  2  0.15974831  0.50000000  0.51486329  1
  H  H9  2  0.34436706  0.00000000  0.83181460  1
  H  H10  2  0.46994048  0.50000000  0.64963703  1
  H  H11  2  0.49002003  0.50000000  0.18611583  1
