# generated using pymatgen
data_Gd2GaH2
_symmetry_space_group_name_H-M   'P 1'
_cell_length_a   3.67602075
_cell_length_b   3.67602075
_cell_length_c   6.69842832
_cell_angle_alpha   105.92592010
_cell_angle_beta   105.92592010
_cell_angle_gamma   90.00000000
_symmetry_Int_Tables_number   1
_chemical_formula_structural   Gd2GaH2
_chemical_formula_sum   'Gd2 Ga1 H2'
_cell_volume   83.42360040
_cell_formula_units_Z   1
loop_
 _symmetry_equiv_pos_site_id
 _symmetry_equiv_pos_as_xyz
  1  'x, y, z'
loop_
 _atom_site_type_symbol
 _atom_site_label
 _atom_site_symmetry_multiplicity
 _atom_site_fract_x
 _atom_site_fract_y
 _atom_site_fract_z
 _atom_site_occupancy
  Gd  Gd0  1  0.85529770  0.85529770  0.71059540  1
  Gd  Gd1  1  0.14470230  0.14470230  0.28940460  1
  Ga  Ga2  1  0.50000000  0.50000000  0.00000000  1
  H  H3  1  0.25000000  0.75000000  0.50000000  1
  H  H4  1  0.75000000  0.25000000  0.50000000  1
