# generated using pymatgen
data_Gd2HC
_symmetry_space_group_name_H-M   'P 1'
_cell_length_a   6.29477758
_cell_length_b   6.29477758
_cell_length_c   6.39635998
_cell_angle_alpha   101.09535469
_cell_angle_beta   101.09535469
_cell_angle_gamma   118.72225216
_symmetry_Int_Tables_number   1
_chemical_formula_structural   Gd2HC
_chemical_formula_sum   'Gd6 H3 C3'
_cell_volume   205.81008574
_cell_formula_units_Z   3
loop_
 _symmetry_equiv_pos_site_id
 _symmetry_equiv_pos_as_xyz
  1  'x, y, z'
loop_
 _atom_site_type_symbol
 _atom_site_label
 _atom_site_symmetry_multiplicity
 _atom_site_fract_x
 _atom_site_fract_y
 _atom_site_fract_z
 _atom_site_occupancy
  Gd  Gd0  1  0.59852926  0.93172693  0.73445843  1
  Gd  Gd1  1  0.40147074  0.06827307  0.26554157  1
  Gd  Gd2  1  0.93172693  0.59852926  0.73445843  1
  Gd  Gd3  1  0.22266813  0.22266813  0.75686933  1
  Gd  Gd4  1  0.77733187  0.77733187  0.24313067  1
  Gd  Gd5  1  0.06827307  0.40147074  0.26554157  1
  H  H6  1  0.68133690  0.31866310  0.00000000  1
  H  H7  1  0.31866310  0.68133690  0.00000000  1
  H  H8  1  0.50000000  0.50000000  0.50000000  1
  C  C9  1  0.83420500  0.16579500  0.50000000  1
  C  C10  1  0.16579500  0.83420500  0.50000000  1
  C  C11  1  0.00000000  0.00000000  0.00000000  1
