# generated using pymatgen
data_Gd2SnC
_symmetry_space_group_name_H-M   'P 1'
_cell_length_a   3.65723020
_cell_length_b   3.66061730
_cell_length_c   8.36163957
_cell_angle_alpha   77.46568105
_cell_angle_beta   77.36784076
_cell_angle_gamma   60.03060328
_symmetry_Int_Tables_number   1
_chemical_formula_structural   Gd2SnC
_chemical_formula_sum   'Gd2 Sn1 C1'
_cell_volume   93.85591887
_cell_formula_units_Z   1
loop_
 _symmetry_equiv_pos_site_id
 _symmetry_equiv_pos_as_xyz
  1  'x, y, z'
loop_
 _atom_site_type_symbol
 _atom_site_label
 _atom_site_symmetry_multiplicity
 _atom_site_fract_x
 _atom_site_fract_y
 _atom_site_fract_z
 _atom_site_occupancy
  Gd  Gd0  1  0.30325725  0.06031155  0.33317394  1
  Gd  Gd1  1  0.74949338  0.50677609  0.99423716  1
  Sn  Sn2  1  0.52698197  0.28226118  0.66377488  1
  C  C3  1  0.02617209  0.78355837  0.16409746  1
