# generated using pymatgen
data_Gd3CN
_symmetry_space_group_name_H-M   C2
_cell_length_a   6.29193751
_cell_length_b   10.82213120
_cell_length_c   6.21053848
_cell_angle_alpha   90.00000000
_cell_angle_beta   110.16990676
_cell_angle_gamma   90.00000000
_symmetry_Int_Tables_number   5
_chemical_formula_structural   Gd3CN
_chemical_formula_sum   'Gd12 C4 N4'
_cell_volume   396.95507457
_cell_formula_units_Z   4
loop_
 _symmetry_equiv_pos_site_id
 _symmetry_equiv_pos_as_xyz
  1  'x, y, z'
  2  '-x, y, -z'
  3  'x+1/2, y+1/2, z'
  4  '-x+1/2, y+1/2, -z'
loop_
 _atom_site_type_symbol
 _atom_site_label
 _atom_site_symmetry_multiplicity
 _atom_site_fract_x
 _atom_site_fract_y
 _atom_site_fract_z
 _atom_site_occupancy
  Gd  Gd0  4  0.22803146  0.24281623  0.75428372  1
  Gd  Gd1  4  0.22840136  0.06064750  0.26020531  1
  Gd  Gd2  4  0.24844522  0.40261328  0.24917784  1
  C  C3  2  0.00000000  0.23723513  0.00000000  1
  C  C4  2  0.00000000  0.90370079  0.00000000  1
  N  N5  2  0.00000000  0.06666187  0.50000000  1
  N  N6  2  0.00000000  0.39881923  0.50000000  1
