# generated using pymatgen
data_Gd3CO2
_symmetry_space_group_name_H-M   Immm
_cell_length_a   3.54945453
_cell_length_b   4.97928103
_cell_length_c   10.59404483
_cell_angle_alpha   90.00000000
_cell_angle_beta   90.00000000
_cell_angle_gamma   90.00000000
_symmetry_Int_Tables_number   71
_chemical_formula_structural   Gd3CO2
_chemical_formula_sum   'Gd6 C2 O4'
_cell_volume   187.23630497
_cell_formula_units_Z   2
loop_
 _symmetry_equiv_pos_site_id
 _symmetry_equiv_pos_as_xyz
  1  'x, y, z'
  2  '-x, -y, -z'
  3  '-x, -y, z'
  4  'x, y, -z'
  5  'x, -y, -z'
  6  '-x, y, z'
  7  '-x, y, -z'
  8  'x, -y, z'
  9  'x+1/2, y+1/2, z+1/2'
  10  '-x+1/2, -y+1/2, -z+1/2'
  11  '-x+1/2, -y+1/2, z+1/2'
  12  'x+1/2, y+1/2, -z+1/2'
  13  'x+1/2, -y+1/2, -z+1/2'
  14  '-x+1/2, y+1/2, z+1/2'
  15  '-x+1/2, y+1/2, -z+1/2'
  16  'x+1/2, -y+1/2, z+1/2'
loop_
 _atom_site_type_symbol
 _atom_site_label
 _atom_site_symmetry_multiplicity
 _atom_site_fract_x
 _atom_site_fract_y
 _atom_site_fract_z
 _atom_site_occupancy
  Gd  Gd0  4  0.00000000  0.50000000  0.33680464  1
  Gd  Gd1  2  0.00000000  0.50000000  0.00000000  1
  C  C2  2  0.00000000  0.00000000  0.00000000  1
  O  O3  4  0.00000000  0.00000000  0.33570043  1
