# generated using pymatgen
data_Gd3CO2
_symmetry_space_group_name_H-M   'P 1'
_cell_length_a   3.54945453
_cell_length_b   4.97928103
_cell_length_c   6.11607825
_cell_angle_alpha   114.02058654
_cell_angle_beta   106.86837710
_cell_angle_gamma   90.00000000
_symmetry_Int_Tables_number   1
_chemical_formula_structural   Gd3CO2
_chemical_formula_sum   'Gd3 C1 O2'
_cell_volume   93.61815249
_cell_formula_units_Z   1
loop_
 _symmetry_equiv_pos_site_id
 _symmetry_equiv_pos_as_xyz
  1  'x, y, z'
loop_
 _atom_site_type_symbol
 _atom_site_label
 _atom_site_symmetry_multiplicity
 _atom_site_fract_x
 _atom_site_fract_y
 _atom_site_fract_z
 _atom_site_occupancy
  Gd  Gd0  1  0.33680464  0.22771804  0.67360928  1
  Gd  Gd1  1  0.00000000  0.89087040  0.00000000  1
  Gd  Gd2  1  0.66319536  0.55410876  0.32639072  1
  C  C3  1  0.00000000  0.39115708  0.00000000  1
  O  O4  1  0.66429957  0.05496399  0.32859913  1
  O  O5  1  0.33570043  0.72636486  0.67140087  1
