# generated using pymatgen
data_Gd3CNO
_symmetry_space_group_name_H-M   'P 1'
_cell_length_a   6.12315965
_cell_length_b   6.12315965
_cell_length_c   6.13311134
_cell_angle_alpha   99.65870214
_cell_angle_beta   99.65870214
_cell_angle_gamma   119.93620846
_symmetry_Int_Tables_number   1
_chemical_formula_structural   Gd3CNO
_chemical_formula_sum   'Gd6 C2 N2 O2'
_cell_volume   187.73898204
_cell_formula_units_Z   2
loop_
 _symmetry_equiv_pos_site_id
 _symmetry_equiv_pos_as_xyz
  1  'x, y, z'
loop_
 _atom_site_type_symbol
 _atom_site_label
 _atom_site_symmetry_multiplicity
 _atom_site_fract_x
 _atom_site_fract_y
 _atom_site_fract_z
 _atom_site_occupancy
  Gd  Gd0  1  0.01293963  0.49332211  0.75442397  1
  Gd  Gd1  1  0.50667789  0.98706037  0.24557603  1
  Gd  Gd2  1  0.34566309  0.15808016  0.75471000  1
  Gd  Gd3  1  0.67373645  0.82611241  0.75623985  1
  Gd  Gd4  1  0.84191984  0.65433691  0.24529000  1
  Gd  Gd5  1  0.17388759  0.32626355  0.24376015  1
  C  C6  1  0.26007987  0.73992013  0.50000000  1
  C  C7  1  0.09178663  0.90821337  0.00000000  1
  N  N8  1  0.75919156  0.24080844  0.00000000  1
  N  N9  1  0.42519868  0.57480132  0.00000000  1
  O  O10  1  0.92600224  0.07399776  0.50000000  1
  O  O11  1  0.59258237  0.40741763  0.50000000  1
