# generated using pymatgen
data_Gd3CNO
_symmetry_space_group_name_H-M   C2
_cell_length_a   6.12906270
_cell_length_b   10.60221329
_cell_length_c   6.13311134
_cell_angle_alpha   90.00000000
_cell_angle_beta   109.58680021
_cell_angle_gamma   90.00000000
_symmetry_Int_Tables_number   5
_chemical_formula_structural   Gd3CNO
_chemical_formula_sum   'Gd12 C4 N4 O4'
_cell_volume   375.47796408
_cell_formula_units_Z   4
loop_
 _symmetry_equiv_pos_site_id
 _symmetry_equiv_pos_as_xyz
  1  'x, y, z'
  2  '-x, y, -z'
  3  'x+1/2, y+1/2, z'
  4  '-x+1/2, y+1/2, -z'
loop_
 _atom_site_type_symbol
 _atom_site_label
 _atom_site_symmetry_multiplicity
 _atom_site_fract_x
 _atom_site_fract_y
 _atom_site_fract_z
 _atom_site_occupancy
  Gd  Gd0  4  0.24686913  0.74019124  0.24557603  1
  Gd  Gd1  4  0.24812837  0.40620853  0.24529000  1
  Gd  Gd2  4  0.24992443  0.57618798  0.75623985  1
  C  C3  2  0.00000000  0.73992013  0.50000000  1
  C  C4  2  0.00000000  0.90821337  0.00000000  1
  N  N5  2  0.00000000  0.24080844  0.00000000  1
  N  N6  2  0.00000000  0.57480132  0.00000000  1
  O  O7  2  0.00000000  0.07399776  0.50000000  1
  O  O8  2  0.00000000  0.40741763  0.50000000  1
