# generated using pymatgen
data_Gd3CN
_symmetry_space_group_name_H-M   'P 1'
_cell_length_a   6.21053848
_cell_length_b   6.25913335
_cell_length_c   6.29193751
_cell_angle_alpha   59.82647692
_cell_angle_beta   110.16990676
_cell_angle_gamma   99.98010321
_symmetry_Int_Tables_number   1
_chemical_formula_structural   Gd3CN
_chemical_formula_sum   'Gd6 C2 N2'
_cell_volume   198.47753729
_cell_formula_units_Z   2
loop_
 _symmetry_equiv_pos_site_id
 _symmetry_equiv_pos_as_xyz
  1  'x, y, z'
loop_
 _atom_site_type_symbol
 _atom_site_label
 _atom_site_symmetry_multiplicity
 _atom_site_fract_x
 _atom_site_fract_y
 _atom_site_fract_z
 _atom_site_occupancy
  Gd  Gd0  1  0.26020531  0.87870501  0.28904886  1
  Gd  Gd1  1  0.24917784  0.19477344  0.65105850  1
  Gd  Gd2  1  0.75428372  0.51436755  0.47084769  1
  Gd  Gd3  1  0.75082216  0.19477344  0.15416806  1
  Gd  Gd4  1  0.24571628  0.51436755  0.01478477  1
  Gd  Gd5  1  0.73979469  0.87870501  0.83224613  1
  C  C6  1  0.00000000  0.19259841  0.90370079  1
  C  C7  1  0.00000000  0.52552974  0.23723513  1
  N  N8  1  0.50000000  0.86667626  0.06666187  1
  N  N9  1  0.50000000  0.20236154  0.39881923  1
