# generated using pymatgen
data_Gd3S
_symmetry_space_group_name_H-M   'P 1'
_cell_length_a   3.78082282
_cell_length_b   3.78082282
_cell_length_c   9.45995647
_cell_angle_alpha   78.47280693
_cell_angle_beta   78.47280693
_cell_angle_gamma   60.00000000
_symmetry_Int_Tables_number   1
_chemical_formula_structural   Gd3S
_chemical_formula_sum   'Gd3 S1'
_cell_volume   113.94922742
_cell_formula_units_Z   1
loop_
 _symmetry_equiv_pos_site_id
 _symmetry_equiv_pos_as_xyz
  1  'x, y, z'
loop_
 _atom_site_type_symbol
 _atom_site_label
 _atom_site_symmetry_multiplicity
 _atom_site_fract_x
 _atom_site_fract_y
 _atom_site_fract_z
 _atom_site_occupancy
  Gd  Gd0  1  0.72928585  0.72928585  0.81214245  1
  Gd  Gd1  1  0.50000000  0.50000000  0.50000000  1
  Gd  Gd2  1  0.27071415  0.27071415  0.18785755  1
  S  S3  1  0.00000000  0.00000000  0.00000000  1
