# generated using pymatgen
data_Gd3TlC
_symmetry_space_group_name_H-M   'P 1'
_cell_length_a   6.04220292
_cell_length_b   6.95825982
_cell_length_c   6.95825982
_cell_angle_alpha   119.99118197
_cell_angle_beta   90.00000000
_cell_angle_gamma   90.00000000
_symmetry_Int_Tables_number   1
_chemical_formula_structural   Gd3TlC
_chemical_formula_sum   'Gd6 Tl2 C2'
_cell_volume   253.37619086
_cell_formula_units_Z   2
loop_
 _symmetry_equiv_pos_site_id
 _symmetry_equiv_pos_as_xyz
  1  'x, y, z'
loop_
 _atom_site_type_symbol
 _atom_site_label
 _atom_site_symmetry_multiplicity
 _atom_site_fract_x
 _atom_site_fract_y
 _atom_site_fract_z
 _atom_site_occupancy
  Gd  Gd0  1  0.75000000  0.31875497  0.15922674  1
  Gd  Gd1  1  0.75000000  0.84077326  0.68124503  1
  Gd  Gd2  1  0.25000000  0.15922674  0.31875497  1
  Gd  Gd3  1  0.25000000  0.68124503  0.84077326  1
  Gd  Gd4  1  0.25000000  0.15935996  0.84064004  1
  Gd  Gd5  1  0.75000000  0.84064004  0.15935996  1
  Tl  Tl6  1  0.75000000  0.33361683  0.66638317  1
  Tl  Tl7  1  0.25000000  0.66638317  0.33361683  1
  C  C8  1  0.00000000  0.00000000  0.00000000  1
  C  C9  1  0.50000000  0.00000000  0.00000000  1
