# generated using pymatgen
data_Gd5H2C2O
_symmetry_space_group_name_H-M   C2/m
_cell_length_a   11.32184710
_cell_length_b   5.02551401
_cell_length_c   7.99655270
_cell_angle_alpha   90.00000000
_cell_angle_beta   134.11879350
_cell_angle_gamma   90.00000000
_symmetry_Int_Tables_number   12
_chemical_formula_structural   Gd5H2C2O
_chemical_formula_sum   'Gd10 H4 C4 O2'
_cell_volume   326.63544968
_cell_formula_units_Z   2
loop_
 _symmetry_equiv_pos_site_id
 _symmetry_equiv_pos_as_xyz
  1  'x, y, z'
  2  '-x, -y, -z'
  3  '-x, y, -z'
  4  'x, -y, z'
  5  'x+1/2, y+1/2, z'
  6  '-x+1/2, -y+1/2, -z'
  7  '-x+1/2, y+1/2, -z'
  8  'x+1/2, -y+1/2, z'
loop_
 _atom_site_type_symbol
 _atom_site_label
 _atom_site_symmetry_multiplicity
 _atom_site_fract_x
 _atom_site_fract_y
 _atom_site_fract_z
 _atom_site_occupancy
  Gd  Gd0  4  0.08866864  0.50000000  0.39813058  1
  Gd  Gd1  4  0.21922835  0.00000000  0.82471016  1
  Gd  Gd2  2  0.00000000  0.00000000  0.00000000  1
  H  H3  4  0.07029704  0.00000000  0.36296585  1
  C  C4  4  0.19659331  0.50000000  0.79142426  1
  O  O5  2  0.00000000  0.50000000  0.00000000  1
