# generated using pymatgen
data_Gd5H2C2O
_symmetry_space_group_name_H-M   'P 1'
_cell_length_a   5.02551401
_cell_length_b   6.19354528
_cell_length_c   6.26726024
_cell_angle_alpha   79.84044761
_cell_angle_beta   66.36342682
_cell_angle_gamma   66.06463867
_symmetry_Int_Tables_number   1
_chemical_formula_structural   Gd5H2C2O
_chemical_formula_sum   'Gd5 H2 C2 O1'
_cell_volume   163.31772484
_cell_formula_units_Z   1
loop_
 _symmetry_equiv_pos_site_id
 _symmetry_equiv_pos_as_xyz
  1  'x, y, z'
loop_
 _atom_site_type_symbol
 _atom_site_label
 _atom_site_symmetry_multiplicity
 _atom_site_fract_x
 _atom_site_fract_y
 _atom_site_fract_z
 _atom_site_occupancy
  Gd  Gd0  1  0.21922835  0.38625346  0.17528984  1
  Gd  Gd1  1  0.00000000  0.00000000  0.00000000  1
  Gd  Gd2  1  0.58866864  0.22079329  0.60186942  1
  Gd  Gd3  1  0.41133136  0.77920671  0.39813058  1
  Gd  Gd4  1  0.78077165  0.61374654  0.82471016  1
  H  H5  1  0.07029704  0.22237178  0.63703415  1
  H  H6  1  0.92970296  0.77762822  0.36296585  1
  C  C7  1  0.30340669  0.60176236  0.79142426  1
  C  C8  1  0.69659331  0.39823764  0.20857574  1
  O  O9  1  0.50000000  0.00000000  0.00000000  1
