# generated using pymatgen
data_Gd6CN4
_symmetry_space_group_name_H-M   C2
_cell_length_a   6.17047223
_cell_length_b   10.67423524
_cell_length_c   6.17684762
_cell_angle_alpha   90.00000000
_cell_angle_beta   109.58796538
_cell_angle_gamma   90.00000000
_symmetry_Int_Tables_number   5
_chemical_formula_structural   Gd6CN4
_chemical_formula_sum   'Gd12 C2 N8'
_cell_volume   383.29391105
_cell_formula_units_Z   2
loop_
 _symmetry_equiv_pos_site_id
 _symmetry_equiv_pos_as_xyz
  1  'x, y, z'
  2  '-x, y, -z'
  3  'x+1/2, y+1/2, z'
  4  '-x+1/2, y+1/2, -z'
loop_
 _atom_site_type_symbol
 _atom_site_label
 _atom_site_symmetry_multiplicity
 _atom_site_fract_x
 _atom_site_fract_y
 _atom_site_fract_z
 _atom_site_occupancy
  Gd  Gd0  4  0.23584758  0.10862913  0.76438277  1
  Gd  Gd1  4  0.23732134  0.28354573  0.24478077  1
  Gd  Gd2  4  0.23921549  0.93141206  0.24293747  1
  C  C3  2  0.00000000  0.94132218  0.50000000  1
  N  N4  2  0.00000000  0.10762020  0.00000000  1
  N  N5  2  0.00000000  0.27475828  0.50000000  1
  N  N6  2  0.00000000  0.43965716  0.00000000  1
  N  N7  2  0.00000000  0.77677025  0.00000000  1
