# generated using pymatgen
data_Gd6C4O
_symmetry_space_group_name_H-M   'P 1'
_cell_length_a   3.61633221
_cell_length_b   7.28531128
_cell_length_c   8.08875771
_cell_angle_alpha   102.47505549
_cell_angle_beta   102.91707758
_cell_angle_gamma   90.00000000
_symmetry_Int_Tables_number   1
_chemical_formula_structural   Gd6C4O
_chemical_formula_sum   'Gd6 C4 O1'
_cell_volume   202.54915721
_cell_formula_units_Z   1
loop_
 _symmetry_equiv_pos_site_id
 _symmetry_equiv_pos_as_xyz
  1  'x, y, z'
loop_
 _atom_site_type_symbol
 _atom_site_label
 _atom_site_symmetry_multiplicity
 _atom_site_fract_x
 _atom_site_fract_y
 _atom_site_fract_z
 _atom_site_occupancy
  Gd  Gd0  1  0.62333298  0.68994037  0.24666596  1
  Gd  Gd1  1  0.28354005  0.01495864  0.56708011  1
  Gd  Gd2  1  0.95520667  0.82813480  0.91041334  1
  Gd  Gd3  1  0.63046569  0.18848338  0.26093138  1
  Gd  Gd4  1  0.28801238  0.51873802  0.57602477  1
  Gd  Gd5  1  0.95425665  0.37154986  0.90851329  1
  C  C6  1  0.79057392  0.26754502  0.58114784  1
  C  C7  1  0.45897254  0.59447288  0.91794509  1
  C  C8  1  0.79140070  0.76989830  0.58280140  1
  C  C9  1  0.11753936  0.94223180  0.23507872  1
  O  O10  1  0.12177772  0.43388116  0.24355543  1
