# generated using pymatgen
data_Gd6C2N2O
_symmetry_space_group_name_H-M   'P 1'
_cell_length_a   6.16081893
_cell_length_b   6.16081893
_cell_length_c   6.16334484
_cell_angle_alpha   99.71378306
_cell_angle_beta   99.71378306
_cell_angle_gamma   119.95297207
_symmetry_Int_Tables_number   1
_chemical_formula_structural   Gd6C2N2O
_chemical_formula_sum   'Gd6 C2 N2 O1'
_cell_volume   190.81689825
_cell_formula_units_Z   1
loop_
 _symmetry_equiv_pos_site_id
 _symmetry_equiv_pos_as_xyz
  1  'x, y, z'
loop_
 _atom_site_type_symbol
 _atom_site_label
 _atom_site_symmetry_multiplicity
 _atom_site_fract_x
 _atom_site_fract_y
 _atom_site_fract_z
 _atom_site_occupancy
  Gd  Gd0  1  0.63071693  0.90261252  0.25202518  1
  Gd  Gd1  1  0.27743974  0.19482564  0.25973353  1
  Gd  Gd2  1  0.97435901  0.54420928  0.25662707  1
  Gd  Gd3  1  0.09738748  0.36928307  0.74797482  1
  Gd  Gd4  1  0.80517436  0.72256026  0.74026647  1
  Gd  Gd5  1  0.45579072  0.02564099  0.74337293  1
  C  C6  1  0.04069533  0.95930467  0.50000000  1
  C  C7  1  0.20619729  0.79380271  0.00000000  1
  N  N8  1  0.70918944  0.29081056  0.50000000  1
  N  N9  1  0.87281593  0.12718407  0.00000000  1
  O  O10  1  0.36939630  0.63060370  0.50000000  1
