# generated using pymatgen
data_Gd6CN3O2
_symmetry_space_group_name_H-M   C2/m
_cell_length_a   6.10268086
_cell_length_b   10.57129951
_cell_length_c   6.11124090
_cell_angle_alpha   90.00000000
_cell_angle_beta   109.42553088
_cell_angle_gamma   90.00000000
_symmetry_Int_Tables_number   12
_chemical_formula_structural   Gd6CN3O2
_chemical_formula_sum   'Gd12 C2 N6 O4'
_cell_volume   371.81291186
_cell_formula_units_Z   2
loop_
 _symmetry_equiv_pos_site_id
 _symmetry_equiv_pos_as_xyz
  1  'x, y, z'
  2  '-x, -y, -z'
  3  '-x, y, -z'
  4  'x, -y, z'
  5  'x+1/2, y+1/2, z'
  6  '-x+1/2, -y+1/2, -z'
  7  '-x+1/2, y+1/2, -z'
  8  'x+1/2, -y+1/2, z'
loop_
 _atom_site_type_symbol
 _atom_site_label
 _atom_site_symmetry_multiplicity
 _atom_site_fract_x
 _atom_site_fract_y
 _atom_site_fract_z
 _atom_site_occupancy
  Gd  Gd0  8  0.24966524  0.33515438  0.75515421  1
  Gd  Gd1  4  0.24471057  0.50000000  0.24503338  1
  C  C2  2  0.00000000  0.50000000  0.50000000  1
  N  N3  4  0.00000000  0.33426781  0.00000000  1
  N  N4  2  0.00000000  0.00000000  0.00000000  1
  O  O5  4  0.00000000  0.16655039  0.50000000  1
