# generated using pymatgen
data_Gd6C2NO2
_symmetry_space_group_name_H-M   Cm
_cell_length_a   11.28870206
_cell_length_b   5.03256792
_cell_length_c   7.14385965
_cell_angle_alpha   90.00000000
_cell_angle_beta   108.60267426
_cell_angle_gamma   90.00000000
_symmetry_Int_Tables_number   8
_chemical_formula_structural   Gd6C2NO2
_chemical_formula_sum   'Gd12 C4 N2 O4'
_cell_volume   384.64666970
_cell_formula_units_Z   2
loop_
 _symmetry_equiv_pos_site_id
 _symmetry_equiv_pos_as_xyz
  1  'x, y, z'
  2  'x, -y, z'
  3  'x+1/2, y+1/2, z'
  4  'x+1/2, -y+1/2, z'
loop_
 _atom_site_type_symbol
 _atom_site_label
 _atom_site_symmetry_multiplicity
 _atom_site_fract_x
 _atom_site_fract_y
 _atom_site_fract_z
 _atom_site_occupancy
  Gd  Gd0  2  0.07600845  0.00000000  0.86311983  1
  Gd  Gd1  2  0.07874140  0.00000000  0.37070681  1
  Gd  Gd2  2  0.24973820  0.50000000  0.71085913  1
  Gd  Gd3  2  0.25819704  0.50000000  0.19883008  1
  Gd  Gd4  2  0.40484700  0.00000000  0.53931445  1
  Gd  Gd5  2  0.40807363  0.00000000  0.02373485  1
  C  C6  2  0.24646062  0.00000000  0.70630673  1
  C  C7  2  0.41328888  0.50000000  0.52735172  1
  N  N8  2  0.41059893  0.50000000  0.03726093  1
  O  O9  2  0.07577285  0.50000000  0.87358085  1
  O  O10  2  0.24877824  0.00000000  0.19793315  1
