# generated using pymatgen
data_Gd6CN4O
_symmetry_space_group_name_H-M   C2
_cell_length_a   6.12539808
_cell_length_b   10.61024132
_cell_length_c   6.12344292
_cell_angle_alpha   90.00000000
_cell_angle_beta   109.41474745
_cell_angle_gamma   90.00000000
_symmetry_Int_Tables_number   5
_chemical_formula_structural   Gd6CN4O
_chemical_formula_sum   'Gd12 C2 N8 O2'
_cell_volume   375.34453515
_cell_formula_units_Z   2
loop_
 _symmetry_equiv_pos_site_id
 _symmetry_equiv_pos_as_xyz
  1  'x, y, z'
  2  '-x, y, -z'
  3  'x+1/2, y+1/2, z'
  4  '-x+1/2, y+1/2, -z'
loop_
 _atom_site_type_symbol
 _atom_site_label
 _atom_site_symmetry_multiplicity
 _atom_site_fract_x
 _atom_site_fract_y
 _atom_site_fract_z
 _atom_site_occupancy
  Gd  Gd0  4  0.24611377  0.38647700  0.75427639  1
  Gd  Gd1  4  0.24658634  0.21710240  0.24859836  1
  Gd  Gd2  4  0.24723857  0.55480497  0.24778163  1
  C  C3  2  0.00000000  0.71939883  0.00000000  1
  N  N4  2  0.00000000  0.05359889  0.00000000  1
  N  N5  2  0.00000000  0.21956558  0.50000000  1
  N  N6  2  0.00000000  0.38613757  0.00000000  1
  N  N7  2  0.00000000  0.55295246  0.50000000  1
  O  O8  2  0.00000000  0.88573001  0.50000000  1
