# generated using pymatgen
data_Gd6CN4
_symmetry_space_group_name_H-M   'P 1'
_cell_length_a   6.16469840
_cell_length_b   6.16469840
_cell_length_c   6.17684762
_cell_angle_alpha   99.65899193
_cell_angle_beta   99.65899193
_cell_angle_gamma   119.93802566
_symmetry_Int_Tables_number   1
_chemical_formula_structural   Gd6CN4
_chemical_formula_sum   'Gd6 C1 N4'
_cell_volume   191.64695552
_cell_formula_units_Z   1
loop_
 _symmetry_equiv_pos_site_id
 _symmetry_equiv_pos_as_xyz
  1  'x, y, z'
loop_
 _atom_site_type_symbol
 _atom_site_label
 _atom_site_symmetry_multiplicity
 _atom_site_fract_x
 _atom_site_fract_y
 _atom_site_fract_z
 _atom_site_occupancy
  Gd  Gd0  1  0.65552329  0.87278156  0.23561723  1
  Gd  Gd1  1  0.47913293  0.04622440  0.75521923  1
  Gd  Gd2  1  0.95377560  0.52086707  0.24478077  1
  Gd  Gd3  1  0.82937245  0.69219657  0.75706253  1
  Gd  Gd4  1  0.30780343  0.17062755  0.24293747  1
  Gd  Gd5  1  0.12721844  0.34447671  0.76438277  1
  C  C6  1  0.05867782  0.94132218  0.50000000  1
  N  N7  1  0.89237980  0.10762020  0.00000000  1
  N  N8  1  0.72524172  0.27475828  0.50000000  1
  N  N9  1  0.56034284  0.43965716  0.00000000  1
  N  N10  1  0.22322975  0.77677025  0.00000000  1
