# generated using pymatgen
data_Gd6CNO4
_symmetry_space_group_name_H-M   C2
_cell_length_a   6.06604485
_cell_length_b   10.52399616
_cell_length_c   6.07083221
_cell_angle_alpha   90.00000000
_cell_angle_beta   109.42173588
_cell_angle_gamma   90.00000000
_symmetry_Int_Tables_number   5
_chemical_formula_structural   Gd6CNO4
_chemical_formula_sum   'Gd12 C2 N2 O8'
_cell_volume   365.50279147
_cell_formula_units_Z   2
loop_
 _symmetry_equiv_pos_site_id
 _symmetry_equiv_pos_as_xyz
  1  'x, y, z'
  2  '-x, y, -z'
  3  'x+1/2, y+1/2, z'
  4  '-x+1/2, y+1/2, -z'
loop_
 _atom_site_type_symbol
 _atom_site_label
 _atom_site_symmetry_multiplicity
 _atom_site_fract_x
 _atom_site_fract_y
 _atom_site_fract_z
 _atom_site_occupancy
  Gd  Gd0  4  0.24334017  0.64766860  0.24510053  1
  Gd  Gd1  4  0.24878975  0.47919185  0.75582750  1
  Gd  Gd2  4  0.24984472  0.81725150  0.75512414  1
  C  C3  2  0.00000000  0.81452826  0.00000000  1
  N  N4  2  0.00000000  0.48148213  0.00000000  1
  O  O5  2  0.00000000  0.14787790  0.00000000  1
  O  O6  2  0.00000000  0.31598293  0.50000000  1
  O  O7  2  0.00000000  0.64979357  0.50000000  1
  O  O8  2  0.00000000  0.97840171  0.50000000  1
