# generated using pymatgen
data_Gd6C2N3O
_symmetry_space_group_name_H-M   C2/m
_cell_length_a   6.14146244
_cell_length_b   10.66849521
_cell_length_c   6.15511902
_cell_angle_alpha   90.00000000
_cell_angle_beta   109.35349997
_cell_angle_gamma   90.00000000
_symmetry_Int_Tables_number   12
_chemical_formula_structural   Gd6C2N3O
_chemical_formula_sum   'Gd12 C4 N6 O2'
_cell_volume   380.49557277
_cell_formula_units_Z   2
loop_
 _symmetry_equiv_pos_site_id
 _symmetry_equiv_pos_as_xyz
  1  'x, y, z'
  2  '-x, -y, -z'
  3  '-x, y, -z'
  4  'x, -y, z'
  5  'x+1/2, y+1/2, z'
  6  '-x+1/2, -y+1/2, -z'
  7  '-x+1/2, y+1/2, -z'
  8  'x+1/2, -y+1/2, z'
loop_
 _atom_site_type_symbol
 _atom_site_label
 _atom_site_symmetry_multiplicity
 _atom_site_fract_x
 _atom_site_fract_y
 _atom_site_fract_z
 _atom_site_occupancy
  Gd  Gd0  8  0.24741488  0.16671998  0.75111912  1
  Gd  Gd1  4  0.24345716  0.00000000  0.25175001  1
  C  C2  4  0.00000000  0.33366750  0.50000000  1
  N  N3  4  0.00000000  0.16590935  0.00000000  1
  N  N4  2  0.00000000  0.00000000  0.50000000  1
  O  O5  2  0.00000000  0.50000000  0.00000000  1
