# generated using pymatgen
data_Gd6C3SO2
_symmetry_space_group_name_H-M   C2
_cell_length_a   6.37598554
_cell_length_b   10.90980971
_cell_length_c   6.35222613
_cell_angle_alpha   90.00000000
_cell_angle_beta   110.14088515
_cell_angle_gamma   90.00000000
_symmetry_Int_Tables_number   5
_chemical_formula_structural   Gd6C3SO2
_chemical_formula_sum   'Gd12 C6 S2 O4'
_cell_volume   414.84522650
_cell_formula_units_Z   2
loop_
 _symmetry_equiv_pos_site_id
 _symmetry_equiv_pos_as_xyz
  1  'x, y, z'
  2  '-x, y, -z'
  3  'x+1/2, y+1/2, z'
  4  '-x+1/2, y+1/2, -z'
loop_
 _atom_site_type_symbol
 _atom_site_label
 _atom_site_symmetry_multiplicity
 _atom_site_fract_x
 _atom_site_fract_y
 _atom_site_fract_z
 _atom_site_occupancy
  Gd  Gd0  4  0.22822169  0.39354356  0.24641376  1
  Gd  Gd1  4  0.23529995  0.56929244  0.76490775  1
  Gd  Gd2  4  0.24095583  0.74444907  0.23660998  1
  C  C3  2  0.00000000  0.23379072  0.00000000  1
  C  C4  2  0.00000000  0.40098831  0.50000000  1
  C  C5  2  0.00000000  0.56978620  0.00000000  1
  S  S6  2  0.00000000  0.06755794  0.50000000  1
  O  O7  2  0.00000000  0.73409326  0.50000000  1
  O  O8  2  0.00000000  0.90148002  0.00000000  1
