# generated using pymatgen
data_Gd6CN3O2
_symmetry_space_group_name_H-M   'P 1'
_cell_length_a   6.10268086
_cell_length_b   6.10317719
_cell_length_c   6.11124090
_cell_angle_alpha   80.42856378
_cell_angle_beta   70.57446912
_cell_angle_gamma   60.00269008
_symmetry_Int_Tables_number   1
_chemical_formula_structural   Gd6CN3O2
_chemical_formula_sum   'Gd6 C1 N3 O2'
_cell_volume   185.90645593
_cell_formula_units_Z   1
loop_
 _symmetry_equiv_pos_site_id
 _symmetry_equiv_pos_as_xyz
  1  'x, y, z'
loop_
 _atom_site_type_symbol
 _atom_site_label
 _atom_site_symmetry_multiplicity
 _atom_site_fract_x
 _atom_site_fract_y
 _atom_site_fract_z
 _atom_site_occupancy
  Gd  Gd0  1  0.91451085  0.67030877  0.24484579  1
  Gd  Gd1  1  0.58481962  0.32969123  0.24484579  1
  Gd  Gd2  1  0.74471057  0.00000000  0.75496662  1
  Gd  Gd3  1  0.25528943  0.00000000  0.24503338  1
  Gd  Gd4  1  0.41518038  0.67030877  0.75515421  1
  Gd  Gd5  1  0.08548915  0.32969123  0.75515421  1
  C  C6  1  0.50000000  0.00000000  0.50000000  1
  N  N7  1  0.66573219  0.66853561  0.00000000  1
  N  N8  1  0.00000000  0.00000000  0.00000000  1
  N  N9  1  0.33426781  0.33146439  0.00000000  1
  O  O10  1  0.16655039  0.66689922  0.50000000  1
  O  O11  1  0.83344961  0.33310078  0.50000000  1
