# generated using pymatgen
data_Gd6C2N3O
_symmetry_space_group_name_H-M   'P 1'
_cell_length_a   6.14146244
_cell_length_b   6.15496448
_cell_length_c   6.15511902
_cell_angle_alpha   80.48334637
_cell_angle_beta   70.64650003
_cell_angle_gamma   60.07253993
_symmetry_Int_Tables_number   1
_chemical_formula_structural   Gd6C2N3O
_chemical_formula_sum   'Gd6 C2 N3 O1'
_cell_volume   190.24778639
_cell_formula_units_Z   1
loop_
 _symmetry_equiv_pos_site_id
 _symmetry_equiv_pos_as_xyz
  1  'x, y, z'
loop_
 _atom_site_type_symbol
 _atom_site_label
 _atom_site_symmetry_multiplicity
 _atom_site_fract_x
 _atom_site_fract_y
 _atom_site_fract_z
 _atom_site_occupancy
  Gd  Gd0  1  0.91930510  0.66656005  0.75111912  1
  Gd  Gd1  1  0.24345716  0.00000000  0.74824999  1
  Gd  Gd2  1  0.75654284  0.00000000  0.25175001  1
  Gd  Gd3  1  0.41413485  0.66656005  0.24888088  1
  Gd  Gd4  1  0.58586515  0.33343995  0.75111912  1
  Gd  Gd5  1  0.08069490  0.33343995  0.24888088  1
  C  C6  1  0.33366750  0.33266499  0.50000000  1
  C  C7  1  0.66633250  0.66733501  0.50000000  1
  N  N8  1  0.83409065  0.33181870  0.00000000  1
  N  N9  1  0.00000000  0.00000000  0.50000000  1
  N  N10  1  0.16590935  0.66818130  0.00000000  1
  O  O11  1  0.50000000  0.00000000  0.00000000  1
