# generated using pymatgen
data_Gd6C3SO2
_symmetry_space_group_name_H-M   'P 1'
_cell_length_a   6.31817101
_cell_length_b   6.31817101
_cell_length_c   6.35222613
_cell_angle_alpha   100.00535739
_cell_angle_beta   100.00535739
_cell_angle_gamma   119.39367777
_symmetry_Int_Tables_number   1
_chemical_formula_structural   Gd6C3SO2
_chemical_formula_sum   'Gd6 C3 S1 O2'
_cell_volume   207.42261325
_cell_formula_units_Z   1
loop_
 _symmetry_equiv_pos_site_id
 _symmetry_equiv_pos_as_xyz
  1  'x, y, z'
loop_
 _atom_site_type_symbol
 _atom_site_label
 _atom_site_symmetry_multiplicity
 _atom_site_fract_x
 _atom_site_fract_y
 _atom_site_fract_z
 _atom_site_occupancy
  Gd  Gd0  1  0.83467813  0.62176525  0.24641376  1
  Gd  Gd1  1  0.19540761  0.33399249  0.23509225  1
  Gd  Gd2  1  0.01459510  0.50349325  0.76339002  1
  Gd  Gd3  1  0.49650675  0.98540490  0.23660998  1
  Gd  Gd4  1  0.66600751  0.80459239  0.76490775  1
  Gd  Gd5  1  0.37823475  0.16532187  0.75358624  1
  C  C6  1  0.59901169  0.40098831  0.50000000  1
  C  C7  1  0.43021380  0.56978620  0.00000000  1
  C  C8  1  0.76620928  0.23379072  0.00000000  1
  S  S9  1  0.93244206  0.06755794  0.50000000  1
  O  O10  1  0.09851998  0.90148002  0.00000000  1
  O  O11  1  0.26590674  0.73409326  0.50000000  1
