# generated using pymatgen
data_Gd6C2NO2
_symmetry_space_group_name_H-M   'P 1'
_cell_length_a   5.03256792
_cell_length_b   6.17983685
_cell_length_c   7.14385965
_cell_angle_alpha   106.93949875
_cell_angle_beta   90.00000000
_cell_angle_gamma   114.02758608
_symmetry_Int_Tables_number   1
_chemical_formula_structural   Gd6C2NO2
_chemical_formula_sum   'Gd6 C2 N1 O2'
_cell_volume   192.32333485
_cell_formula_units_Z   1
loop_
 _symmetry_equiv_pos_site_id
 _symmetry_equiv_pos_as_xyz
  1  'x, y, z'
loop_
 _atom_site_type_symbol
 _atom_site_label
 _atom_site_symmetry_multiplicity
 _atom_site_fract_x
 _atom_site_fract_y
 _atom_site_fract_z
 _atom_site_occupancy
  Gd  Gd0  1  0.24180296  0.48360591  0.80116992  1
  Gd  Gd1  1  0.59192637  0.18385275  0.97626515  1
  Gd  Gd2  1  0.59515300  0.19030601  0.46068555  1
  Gd  Gd3  1  0.25026180  0.50052360  0.28914087  1
  Gd  Gd4  1  0.92125860  0.84251720  0.62929319  1
  Gd  Gd5  1  0.92399155  0.84798310  0.13688017  1
  C  C6  1  0.75353938  0.50707876  0.29369327  1
  C  C7  1  0.08671112  0.17342225  0.47264828  1
  N  N8  1  0.08940107  0.17880214  0.96273907  1
  O  O9  1  0.42422715  0.84845430  0.12641915  1
  O  O10  1  0.75122176  0.50244351  0.80206685  1
