# generated using pymatgen
data_Gd6C4O
_symmetry_space_group_name_H-M   Cm
_cell_length_a   15.76813707
_cell_length_b   3.61633221
_cell_length_c   7.28531128
_cell_angle_alpha   90.00000000
_cell_angle_beta   102.80436580
_cell_angle_gamma   90.00000000
_symmetry_Int_Tables_number   8
_chemical_formula_structural   Gd6C4O
_chemical_formula_sum   'Gd12 C8 O2'
_cell_volume   405.09831442
_cell_formula_units_Z   2
loop_
 _symmetry_equiv_pos_site_id
 _symmetry_equiv_pos_as_xyz
  1  'x, y, z'
  2  'x, -y, z'
  3  'x+1/2, y+1/2, z'
  4  'x+1/2, -y+1/2, z'
loop_
 _atom_site_type_symbol
 _atom_site_label
 _atom_site_symmetry_multiplicity
 _atom_site_fract_x
 _atom_site_fract_y
 _atom_site_fract_z
 _atom_site_occupancy
  Gd  Gd0  2  0.12333298  0.50000000  0.68994037  1
  Gd  Gd1  2  0.13046569  0.50000000  0.18848338  1
  Gd  Gd2  2  0.28354005  0.00000000  0.01495864  1
  Gd  Gd3  2  0.28801238  0.00000000  0.51873802  1
  Gd  Gd4  2  0.45425665  0.50000000  0.37154986  1
  Gd  Gd5  2  0.45520667  0.50000000  0.82813480  1
  C  C6  2  0.11753936  0.00000000  0.94223180  1
  C  C7  2  0.29057392  0.50000000  0.26754502  1
  C  C8  2  0.29140070  0.50000000  0.76989830  1
  C  C9  2  0.45897254  0.00000000  0.59447288  1
  O  O10  2  0.12177772  0.00000000  0.43388116  1
