# generated using pymatgen
data_Gd6HC2N3
_symmetry_space_group_name_H-M   'P 1'
_cell_length_a   6.19123534
_cell_length_b   6.19123534
_cell_length_c   6.21057739
_cell_angle_alpha   99.66107100
_cell_angle_beta   99.66107100
_cell_angle_gamma   119.95146399
_symmetry_Int_Tables_number   1
_chemical_formula_structural   Gd6HC2N3
_chemical_formula_sum   'Gd6 H1 C2 N3'
_cell_volume   194.31950775
_cell_formula_units_Z   1
loop_
 _symmetry_equiv_pos_site_id
 _symmetry_equiv_pos_as_xyz
  1  'x, y, z'
loop_
 _atom_site_type_symbol
 _atom_site_label
 _atom_site_symmetry_multiplicity
 _atom_site_fract_x
 _atom_site_fract_y
 _atom_site_fract_z
 _atom_site_occupancy
  Gd  Gd0  1  0.08559343  0.43548062  0.25694016  1
  Gd  Gd1  1  0.56451938  0.91440657  0.74305984  1
  Gd  Gd2  1  0.73791988  0.73791988  0.26493055  1
  Gd  Gd3  1  0.91440657  0.56451938  0.74305984  1
  Gd  Gd4  1  0.43548062  0.08559343  0.25694016  1
  Gd  Gd5  1  0.26208012  0.26208012  0.73506945  1
  H  H6  1  0.00000000  0.00000000  0.00000000  1
  C  C7  1  0.66656297  0.33343703  0.00000000  1
  C  C8  1  0.33343703  0.66656297  0.00000000  1
  N  N9  1  0.50000000  0.50000000  0.50000000  1
  N  N10  1  0.16756924  0.83243076  0.50000000  1
  N  N11  1  0.83243076  0.16756924  0.50000000  1
