# generated using pymatgen
data_Gd6HC3
_symmetry_space_group_name_H-M   'P 1'
_cell_length_a   6.30289502
_cell_length_b   6.30240192
_cell_length_c   6.38942717
_cell_angle_alpha   99.50627368
_cell_angle_beta   99.61577150
_cell_angle_gamma   120.00174863
_symmetry_Int_Tables_number   1
_chemical_formula_structural   Gd6HC3
_chemical_formula_sum   'Gd6 H1 C3'
_cell_volume   207.31845849
_cell_formula_units_Z   1
loop_
 _symmetry_equiv_pos_site_id
 _symmetry_equiv_pos_as_xyz
  1  'x, y, z'
loop_
 _atom_site_type_symbol
 _atom_site_label
 _atom_site_symmetry_multiplicity
 _atom_site_fract_x
 _atom_site_fract_y
 _atom_site_fract_z
 _atom_site_occupancy
  Gd  Gd0  1  0.84795690  0.84258067  0.27021019  1
  Gd  Gd1  1  0.36270710  0.35785309  0.82439209  1
  Gd  Gd2  1  0.51584888  0.17423267  0.27003190  1
  Gd  Gd3  1  0.03064263  0.68946687  0.82427899  1
  Gd  Gd4  1  0.69818690  0.02529933  0.82171758  1
  Gd  Gd5  1  0.18065066  0.50700434  0.27263785  1
  H  H6  1  0.93990536  0.26637763  0.54713535  1
  C  C7  1  0.43905301  0.76586807  0.04706962  1
  C  C8  1  0.77325681  0.43278571  0.04762277  1
  C  C9  1  0.10564220  0.09965189  0.04719777  1
