# generated using pymatgen
data_Gd6H(CN)2
_symmetry_space_group_name_H-M   C2
_cell_length_a   6.20804812
_cell_length_b   10.77802604
_cell_length_c   6.27983531
_cell_angle_alpha   90.00000000
_cell_angle_beta   109.50627620
_cell_angle_gamma   90.00000000
_symmetry_Int_Tables_number   5
_chemical_formula_structural   Gd6H(CN)2
_chemical_formula_sum   'Gd12 H2 C4 N4'
_cell_volume   396.07028391
_cell_formula_units_Z   2
loop_
 _symmetry_equiv_pos_site_id
 _symmetry_equiv_pos_as_xyz
  1  'x, y, z'
  2  '-x, y, -z'
  3  'x+1/2, y+1/2, z'
  4  '-x+1/2, y+1/2, -z'
loop_
 _atom_site_type_symbol
 _atom_site_label
 _atom_site_symmetry_multiplicity
 _atom_site_fract_x
 _atom_site_fract_y
 _atom_site_fract_z
 _atom_site_occupancy
  Gd  Gd0  4  0.23208314  0.78398934  0.23921787  1
  Gd  Gd1  4  0.24914186  0.43886192  0.22894912  1
  Gd  Gd2  4  0.24930137  0.62178896  0.77026066  1
  H  H3  2  0.00000000  0.45070376  0.50000000  1
  C  C4  2  0.00000000  0.61597536  0.00000000  1
  C  C5  2  0.00000000  0.78157298  0.50000000  1
  N  N6  2  0.00000000  0.28207391  0.00000000  1
  N  N7  2  0.00000000  0.94406749  0.00000000  1
