# generated using pymatgen
data_Gd6H2CN3
_symmetry_space_group_name_H-M   C2/m
_cell_length_a   6.13851092
_cell_length_b   10.60740045
_cell_length_c   6.19222000
_cell_angle_alpha   90.00000000
_cell_angle_beta   109.55152699
_cell_angle_gamma   90.00000000
_symmetry_Int_Tables_number   12
_chemical_formula_structural   Gd6H2CN3
_chemical_formula_sum   'Gd12 H4 C2 N6'
_cell_volume   379.94997641
_cell_formula_units_Z   2
loop_
 _symmetry_equiv_pos_site_id
 _symmetry_equiv_pos_as_xyz
  1  'x, y, z'
  2  '-x, -y, -z'
  3  '-x, y, -z'
  4  'x, -y, z'
  5  'x+1/2, y+1/2, z'
  6  '-x+1/2, -y+1/2, -z'
  7  '-x+1/2, y+1/2, -z'
  8  'x+1/2, -y+1/2, z'
loop_
 _atom_site_type_symbol
 _atom_site_label
 _atom_site_symmetry_multiplicity
 _atom_site_fract_x
 _atom_site_fract_y
 _atom_site_fract_z
 _atom_site_occupancy
  Gd  Gd0  8  0.24811000  0.15997000  0.26901000  1.0
  Gd  Gd1  4  0.23371000  0.00000000  0.73969000  1.0
  H  H2  4  0.00000000  0.33283000  0.00000000  1.0
  C  C3  2  0.00000000  0.00000000  0.00000000  1.0
  N  N4  4  0.00000000  0.16429000  0.50000000  1.0
  N  N5  2  0.00000000  0.50000000  0.50000000  1.0
