# generated using pymatgen
data_Gd6H(CN)2
_symmetry_space_group_name_H-M   'P 1'
_cell_length_a   6.21903744
_cell_length_b   6.21903744
_cell_length_c   6.27983531
_cell_angle_alpha   99.59368317
_cell_angle_beta   99.59368317
_cell_angle_gamma   120.11687238
_symmetry_Int_Tables_number   1
_chemical_formula_structural   Gd6H(CN)2
_chemical_formula_sum   'Gd6 H1 C2 N2'
_cell_volume   198.03514195
_cell_formula_units_Z   1
loop_
 _symmetry_equiv_pos_site_id
 _symmetry_equiv_pos_as_xyz
  1  'x, y, z'
loop_
 _atom_site_type_symbol
 _atom_site_label
 _atom_site_symmetry_multiplicity
 _atom_site_fract_x
 _atom_site_fract_y
 _atom_site_fract_z
 _atom_site_occupancy
  Gd  Gd0  1  0.12890966  0.37248759  0.22973934  1
  Gd  Gd1  1  0.81027994  0.68800379  0.22894912  1
  Gd  Gd2  1  0.62751241  0.87109034  0.77026066  1
  Gd  Gd3  1  0.31199621  0.18972006  0.77105088  1
  Gd  Gd4  1  0.44809380  0.01607248  0.23921787  1
  Gd  Gd5  1  0.98392752  0.55190620  0.76078213  1
  H  H6  1  0.54929624  0.45070376  0.50000000  1
  C  C7  1  0.38402464  0.61597536  0.00000000  1
  C  C8  1  0.21842702  0.78157298  0.50000000  1
  N  N9  1  0.05593251  0.94406749  0.00000000  1
  N  N10  1  0.71792609  0.28207391  0.00000000  1
