# generated using pymatgen
data_Gd6H2CN3
_symmetry_space_group_name_H-M   'P 1'
_cell_length_a   6.12777000
_cell_length_b   6.12777000
_cell_length_c   6.19222000
_cell_angle_alpha   99.64950000
_cell_angle_beta   99.64950000
_cell_angle_gamma   119.88400000
_symmetry_Int_Tables_number   1
_chemical_formula_structural   Gd6H2CN3
_chemical_formula_sum   'Gd6 H2 C1 N3'
_cell_volume   189.97498821
_cell_formula_units_Z   1
loop_
 _symmetry_equiv_pos_site_id
 _symmetry_equiv_pos_as_xyz
  1  'x, y, z'
loop_
 _atom_site_type_symbol
 _atom_site_label
 _atom_site_symmetry_multiplicity
 _atom_site_fract_x
 _atom_site_fract_y
 _atom_site_fract_z
 _atom_site_occupancy
  Gd  Gd1  1  0.76629000  0.76629000  0.26031000  1.0
  Gd  Gd2  1  0.91186000  0.59192000  0.73099000  1.0
  Gd  Gd3  1  0.23371000  0.23371000  0.73969000  1.0
  Gd  Gd4  1  0.59192000  0.91186000  0.73099000  1.0
  Gd  Gd5  1  0.08814000  0.40808000  0.26901000  1.0
  Gd  Gd6  1  0.40808000  0.08814000  0.26901000  1.0
  H  H1  1  0.33283000  0.66717000  0.00000000  1.0
  H  H2  1  0.66717000  0.33283000  0.00000000  1.0
  C  C1  1  0.00000000  0.00000000  0.00000000  1.0
  N  N1  1  0.83571000  0.16429000  0.50000000  1.0
  N  N2  1  0.16429000  0.83571000  0.50000000  1.0
  N  N3  1  0.50000000  0.50000000  0.50000000  1.0
