# generated using pymatgen
data_Gd6H2C2O3
_symmetry_space_group_name_H-M   'P 1'
_cell_length_a   6.17877211
_cell_length_b   6.18701107
_cell_length_c   6.26583137
_cell_angle_alpha   70.38423436
_cell_angle_beta   80.27205996
_cell_angle_gamma   60.01757925
_symmetry_Int_Tables_number   1
_chemical_formula_structural   Gd6H2C2O3
_chemical_formula_sum   'Gd6 H2 C2 O3'
_cell_volume   195.43559034
_cell_formula_units_Z   1
loop_
 _symmetry_equiv_pos_site_id
 _symmetry_equiv_pos_as_xyz
  1  'x, y, z'
loop_
 _atom_site_type_symbol
 _atom_site_label
 _atom_site_symmetry_multiplicity
 _atom_site_fract_x
 _atom_site_fract_y
 _atom_site_fract_z
 _atom_site_occupancy
  Gd  Gd0  1  0.84872259  0.08280117  0.74949867  1
  Gd  Gd1  1  0.50030085  0.73322575  0.74135754  1
  Gd  Gd2  1  0.84895553  0.56770465  0.25114906  1
  Gd  Gd3  1  0.15104447  0.43229535  0.74885094  1
  Gd  Gd4  1  0.15127741  0.91719883  0.25050133  1
  Gd  Gd5  1  0.49969915  0.26677425  0.25864246  1
  H  H6  1  0.49878706  0.05498758  0.81886035  1
  H  H7  1  0.50121294  0.94501242  0.18113965  1
  C  C8  1  0.83015133  0.33467333  0.99999672  1
  C  C9  1  0.16984867  0.66532667  0.00000328  1
  O  O10  1  0.14792978  0.17613692  0.49992177  1
  O  O11  1  0.85207022  0.82386308  0.50007823  1
  O  O12  1  0.50000000  0.50000000  0.50000000  1
