# generated using pymatgen
data_Gd6H3C2N
_symmetry_space_group_name_H-M   C2/m
_cell_length_a   6.20516654
_cell_length_b   10.75056358
_cell_length_c   6.13518440
_cell_angle_alpha   90.00000000
_cell_angle_beta   109.73264964
_cell_angle_gamma   90.00000000
_symmetry_Int_Tables_number   12
_chemical_formula_structural   Gd6H3C2N
_chemical_formula_sum   'Gd12 H6 C4 N2'
_cell_volume   385.23908397
_cell_formula_units_Z   2
loop_
 _symmetry_equiv_pos_site_id
 _symmetry_equiv_pos_as_xyz
  1  'x, y, z'
  2  '-x, -y, -z'
  3  '-x, y, -z'
  4  'x, -y, z'
  5  'x+1/2, y+1/2, z'
  6  '-x+1/2, -y+1/2, -z'
  7  '-x+1/2, y+1/2, -z'
  8  'x+1/2, -y+1/2, z'
loop_
 _atom_site_type_symbol
 _atom_site_label
 _atom_site_symmetry_multiplicity
 _atom_site_fract_x
 _atom_site_fract_y
 _atom_site_fract_z
 _atom_site_occupancy
  Gd  Gd0  8  0.24221624  0.16541675  0.73078444  1
  Gd  Gd1  4  0.24582459  0.50000000  0.73025652  1
  H  H2  4  0.00000000  0.16989077  0.00000000  1
  H  H3  2  0.00000000  0.50000000  0.00000000  1
  C  C4  4  0.00000000  0.33325158  0.50000000  1
  N  N5  2  0.00000000  0.00000000  0.50000000  1
