# generated using pymatgen
data_Gd6HC3
_symmetry_space_group_name_H-M   C2/m
_cell_length_a   6.30248190
_cell_length_b   10.91660355
_cell_length_c   6.38942717
_cell_angle_alpha   90.00000000
_cell_angle_beta   109.40264067
_cell_angle_gamma   90.00000000
_symmetry_Int_Tables_number   12
_chemical_formula_structural   Gd6HC3
_chemical_formula_sum   'Gd12 H2 C6'
_cell_volume   414.63718324
_cell_formula_units_Z   2
loop_
 _symmetry_equiv_pos_site_id
 _symmetry_equiv_pos_as_xyz
  1  'x, y, z'
  2  '-x, -y, -z'
  3  '-x, y, -z'
  4  'x, -y, z'
  5  'x+1/2, y+1/2, z'
  6  '-x+1/2, -y+1/2, -z'
  7  '-x+1/2, y+1/2, -z'
  8  'x+1/2, -y+1/2, z'
loop_
 _atom_site_type_symbol
 _atom_site_label
 _atom_site_symmetry_multiplicity
 _atom_site_fract_x
 _atom_site_fract_y
 _atom_site_fract_z
 _atom_site_occupancy
  Gd  Gd0  8  0.24212729  0.16592425  0.72307483  1
  Gd  Gd1  4  0.24139838  0.50000000  0.72541778  1
  H  H2  2  0.00000000  0.50000000  0.00000000  1
  C  C3  4  0.00000000  0.33347169  0.50000000  1
  C  C4  2  0.00000000  0.00000000  0.50000000  1
