# generated using pymatgen
data_Gd6H3C2N
_symmetry_space_group_name_H-M   'P 1'
_cell_length_a   6.13518440
_cell_length_b   6.20516654
_cell_length_c   6.20642226
_cell_angle_alpha   119.99330733
_cell_angle_beta   99.71699159
_cell_angle_gamma   70.26735036
_symmetry_Int_Tables_number   1
_chemical_formula_structural   Gd6H3C2N
_chemical_formula_sum   'Gd6 H3 C2 N1'
_cell_volume   192.61954199
_cell_formula_units_Z   1
loop_
 _symmetry_equiv_pos_site_id
 _symmetry_equiv_pos_as_xyz
  1  'x, y, z'
loop_
 _atom_site_type_symbol
 _atom_site_label
 _atom_site_symmetry_multiplicity
 _atom_site_fract_x
 _atom_site_fract_y
 _atom_site_fract_z
 _atom_site_occupancy
  Gd  Gd0  1  0.73078444  0.59236701  0.66916650  1
  Gd  Gd1  1  0.73025652  0.25417541  0.00000000  1
  Gd  Gd2  1  0.26921556  0.07679949  0.66916650  1
  Gd  Gd3  1  0.26974348  0.74582459  0.00000000  1
  Gd  Gd4  1  0.73078444  0.92320051  0.33083350  1
  Gd  Gd5  1  0.26921556  0.40763299  0.33083350  1
  H  H6  1  0.00000000  0.16989077  0.33978155  1
  H  H7  1  0.00000000  0.50000000  0.00000000  1
  H  H8  1  0.00000000  0.83010923  0.66021845  1
  C  C9  1  0.50000000  0.33325158  0.66650317  1
  C  C10  1  0.50000000  0.66674842  0.33349683  1
  N  N11  1  0.50000000  0.00000000  0.00000000  1
