# generated using pymatgen
data_Gd6HC2O3
_symmetry_space_group_name_H-M   'P 1'
_cell_length_a   6.14203560
_cell_length_b   6.14275310
_cell_length_c   6.14843881
_cell_angle_alpha   80.36509937
_cell_angle_beta   70.44097721
_cell_angle_gamma   60.00386379
_symmetry_Int_Tables_number   1
_chemical_formula_structural   Gd6HC2O3
_chemical_formula_sum   'Gd6 H1 C2 O3'
_cell_volume   189.31091213
_cell_formula_units_Z   1
loop_
 _symmetry_equiv_pos_site_id
 _symmetry_equiv_pos_as_xyz
  1  'x, y, z'
loop_
 _atom_site_type_symbol
 _atom_site_label
 _atom_site_symmetry_multiplicity
 _atom_site_fract_x
 _atom_site_fract_y
 _atom_site_fract_z
 _atom_site_occupancy
  Gd  Gd0  1  0.88037167  0.65101555  0.43016380  1
  Gd  Gd1  1  0.69885706  0.00000000  0.92528704  1
  Gd  Gd2  1  0.04797522  0.34932046  0.92917523  1
  Gd  Gd3  1  0.53138722  0.34898445  0.43016380  1
  Gd  Gd4  1  0.22936120  0.00000000  0.43404913  1
  Gd  Gd5  1  0.39729568  0.65067954  0.92917523  1
  H  H6  1  0.96359279  0.00000000  0.17974584  1
  C  C7  1  0.29806289  0.33250375  0.17966300  1
  C  C8  1  0.63056664  0.66749625  0.17966300  1
  O  O9  1  0.46407502  0.00000000  0.67973906  1
  O  O10  1  0.79440903  0.34083128  0.67988343  1
  O  O11  1  0.13524031  0.65916872  0.67988343  1
