# generated using pymatgen
data_Gd7ErC6
_symmetry_space_group_name_H-M   R3
_cell_length_a   11.26039165
_cell_length_b   11.26039165
_cell_length_c   6.92266418
_cell_angle_alpha   90.00000000
_cell_angle_beta   90.00000000
_cell_angle_gamma   120.00000000
_symmetry_Int_Tables_number   146
_chemical_formula_structural   Gd7ErC6
_chemical_formula_sum   'Gd21 Er3 C18'
_cell_volume   760.17028288
_cell_formula_units_Z   3
loop_
 _symmetry_equiv_pos_site_id
 _symmetry_equiv_pos_as_xyz
  1  'x, y, z'
  2  '-y, x-y, z'
  3  '-x+y, -x, z'
  4  'x+2/3, y+1/3, z+1/3'
  5  '-y+2/3, x-y+1/3, z+1/3'
  6  '-x+y+2/3, -x+1/3, z+1/3'
  7  'x+1/3, y+2/3, z+2/3'
  8  '-y+1/3, x-y+2/3, z+2/3'
  9  '-x+y+1/3, -x+2/3, z+2/3'
loop_
 _atom_site_type_symbol
 _atom_site_label
 _atom_site_symmetry_multiplicity
 _atom_site_fract_x
 _atom_site_fract_y
 _atom_site_fract_z
 _atom_site_occupancy
  Gd  Gd0  9  0.02777131  0.55623629  0.17124168  1
  Gd  Gd1  9  0.02844377  0.47125457  0.67161252  1
  Gd  Gd2  3  0.00000000  0.00000000  0.28319935  1
  Er  Er3  3  0.00000000  0.00000000  0.77798223  1
  C  C4  9  0.16302463  0.70708774  0.78435067  1
  C  C5  9  0.16890626  0.46089632  0.28182783  1
