# generated using pymatgen
data_LiGd2C
_symmetry_space_group_name_H-M   'P 1'
_cell_length_a   3.59721249
_cell_length_b   3.59721249
_cell_length_c   8.73492438
_cell_angle_alpha   78.13474150
_cell_angle_beta   78.13474150
_cell_angle_gamma   60.01951037
_symmetry_Int_Tables_number   1
_chemical_formula_structural   LiGd2C
_chemical_formula_sum   'Li1 Gd2 C1'
_cell_volume   95.10561389
_cell_formula_units_Z   1
loop_
 _symmetry_equiv_pos_site_id
 _symmetry_equiv_pos_as_xyz
  1  'x, y, z'
loop_
 _atom_site_type_symbol
 _atom_site_label
 _atom_site_symmetry_multiplicity
 _atom_site_fract_x
 _atom_site_fract_y
 _atom_site_fract_z
 _atom_site_occupancy
  Li  Li0  1  0.00593563  0.00593563  0.42066817  1
  Gd  Gd1  1  0.78536738  0.78536738  0.07897706  1
  Gd  Gd2  1  0.55926328  0.55926328  0.75684724  1
  C  C3  1  0.17084894  0.17084894  0.92213667  1
