# generated using pymatgen
data_Mn2Fe15Co
_symmetry_space_group_name_H-M   Cm
_cell_length_a   20.86023378
_cell_length_b   4.01818226
_cell_length_c   4.91496309
_cell_angle_alpha   90.00000000
_cell_angle_beta   90.04381827
_cell_angle_gamma   90.00000000
_symmetry_Int_Tables_number   8
_chemical_formula_structural   Mn2Fe15Co
_chemical_formula_sum   'Mn4 Fe30 Co2'
_cell_volume   411.97317429
_cell_formula_units_Z   2
loop_
 _symmetry_equiv_pos_site_id
 _symmetry_equiv_pos_as_xyz
  1  'x, y, z'
  2  'x, -y, z'
  3  'x+1/2, y+1/2, z'
  4  'x+1/2, -y+1/2, z'
loop_
 _atom_site_type_symbol
 _atom_site_label
 _atom_site_symmetry_multiplicity
 _atom_site_fract_x
 _atom_site_fract_y
 _atom_site_fract_z
 _atom_site_occupancy
  Mn  Mn0  2  0.12312566  0.00000000  0.91338312  1
  Mn  Mn1  2  0.28876028  0.50000000  0.40801832  1
  Fe  Fe2  2  0.01180317  0.00000000  0.24382713  1
  Fe  Fe3  2  0.06729440  0.50000000  0.57922722  1
  Fe  Fe4  2  0.06770181  0.50000000  0.07892786  1
  Fe  Fe5  2  0.12304227  0.00000000  0.41170978  1
  Fe  Fe6  2  0.17802737  0.50000000  0.74385049  1
  Fe  Fe7  2  0.17874641  0.50000000  0.24343830  1
  Fe  Fe8  2  0.23338497  0.00000000  0.07632833  1
  Fe  Fe9  2  0.23393963  0.00000000  0.57636584  1
  Fe  Fe10  2  0.28904780  0.50000000  0.90848823  1
  Fe  Fe11  2  0.34416657  0.00000000  0.24273204  1
  Fe  Fe12  2  0.34461173  0.00000000  0.74192348  1
  Fe  Fe13  2  0.39982539  0.50000000  0.07764766  1
  Fe  Fe14  2  0.40020009  0.50000000  0.57552449  1
  Fe  Fe15  2  0.45593105  0.00000000  0.40950970  1
  Fe  Fe16  2  0.45609536  0.00000000  0.90989249  1
  Co  Co17  2  0.01158431  0.00000000  0.74447601  1
