# generated using pymatgen
data_Mn2Fe15Co
_symmetry_space_group_name_H-M   'P 1'
_cell_length_a   4.01818226
_cell_length_b   4.91496309
_cell_length_c   10.62185415
_cell_angle_alpha   89.95697270
_cell_angle_beta   100.90300436
_cell_angle_gamma   90.00000000
_symmetry_Int_Tables_number   1
_chemical_formula_structural   Mn2Fe15Co
_chemical_formula_sum   'Mn2 Fe15 Co1'
_cell_volume   205.98658714
_cell_formula_units_Z   1
loop_
 _symmetry_equiv_pos_site_id
 _symmetry_equiv_pos_as_xyz
  1  'x, y, z'
loop_
 _atom_site_type_symbol
 _atom_site_label
 _atom_site_symmetry_multiplicity
 _atom_site_fract_x
 _atom_site_fract_y
 _atom_site_fract_z
 _atom_site_occupancy
  Mn  Mn0  1  0.12312566  0.08661688  0.24625132  1
  Mn  Mn1  1  0.78876028  0.59198168  0.57752056  1
  Fe  Fe2  1  0.01180317  0.75617287  0.02360633  1
  Fe  Fe3  1  0.23338497  0.92367167  0.46676993  1
  Fe  Fe4  1  0.23393963  0.42363416  0.46787925  1
  Fe  Fe5  1  0.67874641  0.75656170  0.35749283  1
  Fe  Fe6  1  0.34461173  0.25807652  0.68922346  1
  Fe  Fe7  1  0.45593105  0.59049030  0.91186210  1
  Fe  Fe8  1  0.34416657  0.75726796  0.68833314  1
  Fe  Fe9  1  0.56729440  0.42077278  0.13458879  1
  Fe  Fe10  1  0.12304227  0.58829022  0.24608454  1
  Fe  Fe11  1  0.45609536  0.09010751  0.91219071  1
  Fe  Fe12  1  0.67802737  0.25614951  0.35605475  1
  Fe  Fe13  1  0.89982539  0.92235234  0.79965078  1
  Fe  Fe14  1  0.78904780  0.09151177  0.57809560  1
  Fe  Fe15  1  0.90020009  0.42447551  0.80040018  1
  Fe  Fe16  1  0.56770181  0.92107214  0.13540363  1
  Co  Co17  1  0.01158431  0.25552399  0.02316862  1
