# generated using pymatgen
data_Mn2Fe3O5
_symmetry_space_group_name_H-M   C2/m
_cell_length_a   9.85139623
_cell_length_b   4.50795754
_cell_length_c   6.93710015
_cell_angle_alpha   90.00000000
_cell_angle_beta   134.59945039
_cell_angle_gamma   90.00000000
_symmetry_Int_Tables_number   12
_chemical_formula_structural   Mn2Fe3O5
_chemical_formula_sum   'Mn4 Fe6 O10'
_cell_volume   219.35905025
_cell_formula_units_Z   2
loop_
 _symmetry_equiv_pos_site_id
 _symmetry_equiv_pos_as_xyz
  1  'x, y, z'
  2  '-x, -y, -z'
  3  '-x, y, -z'
  4  'x, -y, z'
  5  'x+1/2, y+1/2, z'
  6  '-x+1/2, -y+1/2, -z'
  7  '-x+1/2, y+1/2, -z'
  8  'x+1/2, -y+1/2, z'
loop_
 _atom_site_type_symbol
 _atom_site_label
 _atom_site_symmetry_multiplicity
 _atom_site_fract_x
 _atom_site_fract_y
 _atom_site_fract_z
 _atom_site_occupancy
  Mn  Mn0  4  0.09730870  0.00000000  0.79932844  1
  Fe  Fe1  4  0.20067727  0.50000000  0.60060943  1
  Fe  Fe2  2  0.00000000  0.50000000  0.00000000  1
  O  O3  4  0.10199948  0.50000000  0.79302219  1
  O  O4  4  0.21183647  0.00000000  0.60863108  1
  O  O5  2  0.00000000  0.00000000  0.00000000  1
