# generated using pymatgen
data_Mn2Fe3O5
_symmetry_space_group_name_H-M   'P 1'
_cell_length_a   4.50795754
_cell_length_b   5.41691076
_cell_length_c   5.42968894
_cell_angle_alpha   79.51861095
_cell_angle_beta   65.47305328
_cell_angle_gamma   65.41136654
_symmetry_Int_Tables_number   1
_chemical_formula_structural   Mn2Fe3O5
_chemical_formula_sum   'Mn2 Fe3 O5'
_cell_volume   109.67952512
_cell_formula_units_Z   1
loop_
 _symmetry_equiv_pos_site_id
 _symmetry_equiv_pos_as_xyz
  1  'x, y, z'
loop_
 _atom_site_type_symbol
 _atom_site_label
 _atom_site_symmetry_multiplicity
 _atom_site_fract_x
 _atom_site_fract_y
 _atom_site_fract_z
 _atom_site_occupancy
  Mn  Mn0  1  0.90269130  0.39528896  0.79932844  1
  Mn  Mn1  1  0.09730870  0.60471104  0.20067156  1
  Fe  Fe2  1  0.70067727  0.19925489  0.39939057  1
  Fe  Fe3  1  0.50000000  0.00000000  0.00000000  1
  Fe  Fe4  1  0.29932273  0.80074511  0.60060943  1
  O  O5  1  0.39800052  0.41097678  0.79302219  1
  O  O6  1  0.21183647  0.18495814  0.39136892  1
  O  O7  1  0.78816353  0.81504186  0.60863108  1
  O  O8  1  0.60199948  0.58902322  0.20697781  1
  O  O9  1  0.00000000  0.00000000  0.00000000  1
