# generated using pymatgen
data_Mn3BeFe7Co
_symmetry_space_group_name_H-M   'P 1'
_cell_length_a   3.96613229
_cell_length_b   3.96613229
_cell_length_c   9.83256407
_cell_angle_alpha   90.00000000
_cell_angle_beta   90.00000000
_cell_angle_gamma   120.00000000
_symmetry_Int_Tables_number   1
_chemical_formula_structural   Mn3BeFe7Co
_chemical_formula_sum   'Mn3 Be1 Fe7 Co1'
_cell_volume   133.94663502
_cell_formula_units_Z   1
loop_
 _symmetry_equiv_pos_site_id
 _symmetry_equiv_pos_as_xyz
  1  'x, y, z'
loop_
 _atom_site_type_symbol
 _atom_site_label
 _atom_site_symmetry_multiplicity
 _atom_site_fract_x
 _atom_site_fract_y
 _atom_site_fract_z
 _atom_site_occupancy
  Mn  Mn0  1  0.33333333  0.66666667  0.87413870  1
  Mn  Mn1  1  0.66666667  0.33333333  0.18167052  1
  Mn  Mn2  1  0.33333333  0.66666667  0.10852228  1
  Be  Be3  1  0.00000000  0.00000000  0.02127649  1
  Fe  Fe4  1  0.33333333  0.66666667  0.61210240  1
  Fe  Fe5  1  0.66666667  0.33333333  0.44179225  1
  Fe  Fe6  1  0.00000000  0.00000000  0.78002514  1
  Fe  Fe7  1  0.33333333  0.66666667  0.35695827  1
  Fe  Fe8  1  0.66666667  0.33333333  0.69762158  1
  Fe  Fe9  1  0.66666667  0.33333333  0.93936382  1
  Fe  Fe10  1  0.00000000  0.00000000  0.27323624  1
  Co  Co11  1  0.00000000  0.00000000  0.52618076  1
