# generated using pymatgen
data_MnFe17Co2
_symmetry_space_group_name_H-M   'P 1'
_cell_length_a   6.18607956
_cell_length_b   6.34693187
_cell_length_c   6.34935381
_cell_angle_alpha   101.56418003
_cell_angle_beta   107.93855782
_cell_angle_gamma   95.92465298
_symmetry_Int_Tables_number   1
_chemical_formula_structural   MnFe17Co2
_chemical_formula_sum   'Mn1 Fe17 Co2'
_cell_volume   228.69097530
_cell_formula_units_Z   1
loop_
 _symmetry_equiv_pos_site_id
 _symmetry_equiv_pos_as_xyz
  1  'x, y, z'
loop_
 _atom_site_type_symbol
 _atom_site_label
 _atom_site_symmetry_multiplicity
 _atom_site_fract_x
 _atom_site_fract_y
 _atom_site_fract_z
 _atom_site_occupancy
  Mn  Mn0  1  0.15828739  0.59346404  0.41794032  1
  Fe  Fe1  1  0.15948122  0.09427321  0.91826582  1
  Fe  Fe2  1  0.75946770  0.44383746  0.36729817  1
  Fe  Fe3  1  0.15872700  0.84317808  0.16919842  1
  Fe  Fe4  1  0.35921770  0.54281123  0.06824951  1
  Fe  Fe5  1  0.75803821  0.94411173  0.86895064  1
  Fe  Fe6  1  0.55711497  0.74352485  0.46807411  1
  Fe  Fe7  1  0.96013354  0.89195045  0.51788787  1
  Fe  Fe8  1  0.95800899  0.14319321  0.26838417  1
  Fe  Fe9  1  0.55850791  0.49340008  0.71904925  1
  Fe  Fe10  1  0.95872499  0.64361085  0.76839793  1
  Fe  Fe11  1  0.35856257  0.29416946  0.31896201  1
  Fe  Fe12  1  0.15814684  0.34460274  0.66677441  1
  Fe  Fe13  1  0.35847461  0.04397712  0.56951599  1
  Fe  Fe14  1  0.95921960  0.39428319  0.02010922  1
  Fe  Fe15  1  0.35838826  0.79265331  0.81785837  1
  Fe  Fe16  1  0.75867411  0.19270331  0.61749863  1
  Fe  Fe17  1  0.75801792  0.69412813  0.11877212  1
  Co  Co18  1  0.55858109  0.24417178  0.96785211  1
  Co  Co19  1  0.55873544  0.99307416  0.21864526  1
