# generated using pymatgen
data_B2Ir(OsW)2
_symmetry_space_group_name_H-M   'P 1'
_cell_length_a   2.85330946
_cell_length_b   5.04596429
_cell_length_c   6.62505959
_cell_angle_alpha   74.12408444
_cell_angle_beta   77.56439736
_cell_angle_gamma   73.57668310
_symmetry_Int_Tables_number   1
_chemical_formula_structural   B2Ir(OsW)2
_chemical_formula_sum   'B2 Ir1 Os2 W2'
_cell_volume   87.01386530
_cell_formula_units_Z   1
loop_
 _symmetry_equiv_pos_site_id
 _symmetry_equiv_pos_as_xyz
  1  'x, y, z'
loop_
 _atom_site_type_symbol
 _atom_site_label
 _atom_site_symmetry_multiplicity
 _atom_site_fract_x
 _atom_site_fract_y
 _atom_site_fract_z
 _atom_site_occupancy
  B  B0  1  0.16640458  0.41486253  0.25232830  1
  B  B1  1  0.83359542  0.58513747  0.74767170  1
  Ir  Ir2  1  0.50000000  0.50000000  0.50000000  1
  Os  Os3  1  0.39078587  0.27880039  0.93962787  1
  Os  Os4  1  0.60921413  0.72119961  0.06037213  1
  W  W5  1  0.15946842  0.98785914  0.69320401  1
  W  W6  1  0.84053158  0.01214086  0.30679599  1
