# generated using pymatgen
data_B2Ir(OsW)2
_symmetry_space_group_name_H-M   C2/m
_cell_length_a   9.68016775
_cell_length_b   2.85330946
_cell_length_c   7.14586522
_cell_angle_alpha   90.00000000
_cell_angle_beta   118.14916090
_cell_angle_gamma   90.00000000
_symmetry_Int_Tables_number   12
_chemical_formula_structural   B2Ir(OsW)2
_chemical_formula_sum   'B4 Ir2 Os4 W4'
_cell_volume   174.02773060
_cell_formula_units_Z   2
loop_
 _symmetry_equiv_pos_site_id
 _symmetry_equiv_pos_as_xyz
  1  'x, y, z'
  2  '-x, -y, -z'
  3  '-x, y, -z'
  4  'x, -y, z'
  5  'x+1/2, y+1/2, z'
  6  '-x+1/2, -y+1/2, -z'
  7  '-x+1/2, y+1/2, -z'
  8  'x+1/2, -y+1/2, z'
loop_
 _atom_site_type_symbol
 _atom_site_label
 _atom_site_symmetry_multiplicity
 _atom_site_fract_x
 _atom_site_fract_y
 _atom_site_fract_z
 _atom_site_occupancy
  B  B0  4  0.16640458  0.00000000  0.74767170  1
  Os  Os1  4  0.10921413  0.50000000  0.93962787  1
  Ir  Ir2  2  0.00000000  0.50000000  0.50000000  1
  W  W3  4  0.15946842  0.00000000  0.30679599  1
