# generated using pymatgen
data_B2OsW2
_symmetry_space_group_name_H-M   'P 1'
_cell_length_a   3.08144486
_cell_length_b   4.79525796
_cell_length_c   4.79525796
_cell_angle_alpha   61.43064961
_cell_angle_beta   71.25836210
_cell_angle_gamma   71.25836210
_symmetry_Int_Tables_number   1
_chemical_formula_structural   B2OsW2
_chemical_formula_sum   'B2 Os1 W2'
_cell_volume   57.71950356
_cell_formula_units_Z   1
loop_
 _symmetry_equiv_pos_site_id
 _symmetry_equiv_pos_as_xyz
  1  'x, y, z'
loop_
 _atom_site_type_symbol
 _atom_site_label
 _atom_site_symmetry_multiplicity
 _atom_site_fract_x
 _atom_site_fract_y
 _atom_site_fract_z
 _atom_site_occupancy
  B  B0  1  0.00000000  0.82038833  0.17961167  1
  B  B1  1  0.00000000  0.17961167  0.82038833  1
  Os  Os2  1  0.50000000  0.50000000  0.50000000  1
  W  W3  1  0.69373093  0.80626907  0.80626907  1
  W  W4  1  0.30626907  0.19373093  0.19373093  1
