# generated using pymatgen
data_B2Os3W
_symmetry_space_group_name_H-M   'P 1'
_cell_length_a   2.83765038
_cell_length_b   6.91432696
_cell_length_c   7.26752831
_cell_angle_alpha   90.00000000
_cell_angle_beta   90.00000000
_cell_angle_gamma   90.00000000
_symmetry_Int_Tables_number   1
_chemical_formula_structural   B2Os3W
_chemical_formula_sum   'B4 Os6 W2'
_cell_volume   142.59212140
_cell_formula_units_Z   2
loop_
 _symmetry_equiv_pos_site_id
 _symmetry_equiv_pos_as_xyz
  1  'x, y, z'
loop_
 _atom_site_type_symbol
 _atom_site_label
 _atom_site_symmetry_multiplicity
 _atom_site_fract_x
 _atom_site_fract_y
 _atom_site_fract_z
 _atom_site_occupancy
  B  B0  1  0.00000000  0.47059759  0.64995893  1
  B  B1  1  0.50000000  0.52940241  0.14995893  1
  B  B2  1  0.00000000  0.99039878  0.77308218  1
  B  B3  1  0.50000000  0.00960122  0.27308218  1
  Os  Os4  1  0.00000000  0.58052433  0.93068599  1
  Os  Os5  1  0.50000000  0.41947567  0.43068599  1
  Os  Os6  1  0.00000000  0.73867236  0.29076043  1
  Os  Os7  1  0.50000000  0.91879814  0.98124607  1
  Os  Os8  1  0.50000000  0.26132764  0.79076043  1
  Os  Os9  1  0.00000000  0.08120186  0.48124607  1
  W  W10  1  0.50000000  0.75896466  0.62264756  1
  W  W11  1  0.00000000  0.24103534  0.12264756  1
