# generated using pymatgen
data_Ir(OsW)2
_symmetry_space_group_name_H-M   'P 1'
_cell_length_a   4.83656126
_cell_length_b   5.28668410
_cell_length_c   7.36005758
_cell_angle_alpha   66.37729100
_cell_angle_beta   109.18189211
_cell_angle_gamma   117.22130533
_symmetry_Int_Tables_number   1
_chemical_formula_structural   Ir(OsW)2
_chemical_formula_sum   'Ir2 Os4 W4'
_cell_volume   150.86888389
_cell_formula_units_Z   2
loop_
 _symmetry_equiv_pos_site_id
 _symmetry_equiv_pos_as_xyz
  1  'x, y, z'
loop_
 _atom_site_type_symbol
 _atom_site_label
 _atom_site_symmetry_multiplicity
 _atom_site_fract_x
 _atom_site_fract_y
 _atom_site_fract_z
 _atom_site_occupancy
  Ir  Ir0  1  0.36089823  0.85928037  0.18559939  1
  Ir  Ir1  1  0.68398153  0.35928037  0.68559939  1
  Os  Os2  1  0.16100943  0.86042973  0.78370130  1
  Os  Os3  1  0.75458184  0.85958699  0.98444078  1
  Os  Os4  1  0.08944593  0.35958699  0.48444078  1
  Os  Os5  1  0.48312160  0.36042973  0.28370130  1
  W  W6  1  0.27027466  0.33648468  0.88440745  1
  W  W7  1  0.89414146  0.37797186  0.08367104  1
  W  W8  1  0.95061747  0.83648468  0.38440745  1
  W  W9  1  0.56750144  0.87797186  0.58367104  1
