# generated using pymatgen
data_Ir(OsW)2
_symmetry_space_group_name_H-M   Cc
_cell_length_a   9.40232898
_cell_length_b   4.83656126
_cell_length_c   7.13693303
_cell_angle_alpha   90.00000000
_cell_angle_beta   111.61087415
_cell_angle_gamma   90.00000000
_symmetry_Int_Tables_number   9
_chemical_formula_structural   Ir(OsW)2
_chemical_formula_sum   'Ir4 Os8 W8'
_cell_volume   301.73776778
_cell_formula_units_Z   4
loop_
 _symmetry_equiv_pos_site_id
 _symmetry_equiv_pos_as_xyz
  1  'x, y, z'
  2  'x, -y, z+1/2'
  3  'x+1/2, y+1/2, z'
  4  'x+1/2, -y+1/2, z+1/2'
loop_
 _atom_site_type_symbol
 _atom_site_label
 _atom_site_symmetry_multiplicity
 _atom_site_fract_x
 _atom_site_fract_y
 _atom_site_fract_z
 _atom_site_occupancy
  Os  Os0  4  0.07798612  0.16743205  0.01555922  1
  Os  Os1  4  0.17793448  0.33894392  0.71629870  1
  Ir  Ir2  4  0.47756012  0.16154165  0.81440061  1
  W  W3  4  0.26917855  0.16332001  0.41632896  1
  W  W4  4  0.38955394  0.34017140  0.11559255  1
