# generated using pymatgen
data_Ir2Os5Ru
_symmetry_space_group_name_H-M   Pmm2
_cell_length_a   4.35679399
_cell_length_b   5.50597468
_cell_length_c   4.77878307
_cell_angle_alpha   90.00000000
_cell_angle_beta   90.00000000
_cell_angle_gamma   90.00000000
_symmetry_Int_Tables_number   25
_chemical_formula_structural   Ir2Os5Ru
_chemical_formula_sum   'Ir2 Os5 Ru1'
_cell_volume   114.63534726
_cell_formula_units_Z   1
loop_
 _symmetry_equiv_pos_site_id
 _symmetry_equiv_pos_as_xyz
  1  'x, y, z'
  2  '-x, -y, z'
  3  '-x, y, z'
  4  'x, -y, z'
loop_
 _atom_site_type_symbol
 _atom_site_label
 _atom_site_symmetry_multiplicity
 _atom_site_fract_x
 _atom_site_fract_y
 _atom_site_fract_z
 _atom_site_occupancy
  Os  Os0  2  0.00000000  0.24972136  0.07309291  1
  Os  Os1  2  0.50000000  0.24958652  0.74171888  1
  Ru  Ru2  1  0.00000000  0.00000000  0.57629531  1
  Ir  Ir3  1  0.00000000  0.50000000  0.57369305  1
  Ir  Ir4  1  0.50000000  0.00000000  0.24297686  1
  Os  Os5  1  0.50000000  0.50000000  0.24007252  1
