# generated using pymatgen
data_Ir2Os2Ru
_symmetry_space_group_name_H-M   'P 1'
_cell_length_a   2.72607067
_cell_length_b   4.72751492
_cell_length_c   6.09892831
_cell_angle_alpha   75.10539452
_cell_angle_beta   77.08603580
_cell_angle_gamma   73.24261881
_symmetry_Int_Tables_number   1
_chemical_formula_structural   Ir2Os2Ru
_chemical_formula_sum   'Ir2 Os2 Ru1'
_cell_volume   71.77965432
_cell_formula_units_Z   1
loop_
 _symmetry_equiv_pos_site_id
 _symmetry_equiv_pos_as_xyz
  1  'x, y, z'
loop_
 _atom_site_type_symbol
 _atom_site_label
 _atom_site_symmetry_multiplicity
 _atom_site_fract_x
 _atom_site_fract_y
 _atom_site_fract_z
 _atom_site_occupancy
  Ir  Ir0  1  0.80096295  0.10083079  0.29724332  1
  Ir  Ir1  1  0.19903705  0.89916921  0.70275668  1
  Os  Os2  1  0.60220825  0.69821548  0.09736803  1
  Os  Os3  1  0.39779175  0.30178452  0.90263197  1
  Ru  Ru4  1  0.00000000  0.50000000  0.50000000  1
