# generated using pymatgen
data_Ir2Os2Ru
_symmetry_space_group_name_H-M   C2/m
_cell_length_a   9.05351468
_cell_length_b   2.72607067
_cell_length_c   6.68759052
_cell_angle_alpha   90.00000000
_cell_angle_beta   119.56739317
_cell_angle_gamma   90.00000000
_symmetry_Int_Tables_number   12
_chemical_formula_structural   Ir2Os2Ru
_chemical_formula_sum   'Ir4 Os4 Ru2'
_cell_volume   143.55930864
_cell_formula_units_Z   2
loop_
 _symmetry_equiv_pos_site_id
 _symmetry_equiv_pos_as_xyz
  1  'x, y, z'
  2  '-x, -y, -z'
  3  '-x, y, -z'
  4  'x, -y, z'
  5  'x+1/2, y+1/2, z'
  6  '-x+1/2, -y+1/2, -z'
  7  '-x+1/2, y+1/2, -z'
  8  'x+1/2, -y+1/2, z'
loop_
 _atom_site_type_symbol
 _atom_site_label
 _atom_site_symmetry_multiplicity
 _atom_site_fract_x
 _atom_site_fract_y
 _atom_site_fract_z
 _atom_site_occupancy
  Os  Os0  4  0.10220825  0.50000000  0.90263197  1
  Ir  Ir1  4  0.19903705  0.00000000  0.29724332  1
  Ru  Ru2  2  0.00000000  0.00000000  0.50000000  1
