# generated using pymatgen
data_Ir2Os
_symmetry_space_group_name_H-M   P1
_cell_length_a   4.75961879
_cell_length_b   5.49008411
_cell_length_c   6.83633266
_cell_angle_alpha   78.47135256
_cell_angle_beta   83.36106924
_cell_angle_gamma   89.87755326
_symmetry_Int_Tables_number   1
_chemical_formula_structural   Ir2Os
_chemical_formula_sum   'Ir8 Os4'
_cell_volume   173.82010633
_cell_formula_units_Z   4
loop_
 _symmetry_equiv_pos_site_id
 _symmetry_equiv_pos_as_xyz
  1  'x, y, z'
loop_
 _atom_site_type_symbol
 _atom_site_label
 _atom_site_symmetry_multiplicity
 _atom_site_fract_x
 _atom_site_fract_y
 _atom_site_fract_z
 _atom_site_occupancy
  Os  Os0  1  0.15026316  0.28967640  0.48452271  1
  Os  Os1  1  0.15243245  0.78942896  0.48804096  1
  Ir  Ir2  1  0.25708784  0.45748207  0.82297030  1
  Ir  Ir3  1  0.26398575  0.95505617  0.81915342  1
  Os  Os4  1  0.37151798  0.61964129  0.16323908  1
  Ir  Ir5  1  0.37236202  0.12249000  0.16076515  1
  Ir  Ir6  1  0.65148494  0.03955413  0.48787884  1
  Ir  Ir7  1  0.65242527  0.53910497  0.48673179  1
  Ir  Ir8  1  0.76394889  0.70345391  0.82473686  1
  Ir  Ir9  1  0.76754844  0.20761103  0.82326097  1
  Os  Os10  1  0.87386033  0.37435683  0.15453507  1
  Ir  Ir11  1  0.87450039  0.87147492  0.15413890  1
