# generated using pymatgen
data_Ir2Os3
_symmetry_space_group_name_H-M   'P 1'
_cell_length_a   4.78029425
_cell_length_b   4.36884650
_cell_length_c   7.29855500
_cell_angle_alpha   90.00000000
_cell_angle_beta   109.13849758
_cell_angle_gamma   90.00000000
_symmetry_Int_Tables_number   1
_chemical_formula_structural   Ir2Os3
_chemical_formula_sum   'Ir4 Os6'
_cell_volume   144.00098885
_cell_formula_units_Z   2
loop_
 _symmetry_equiv_pos_site_id
 _symmetry_equiv_pos_as_xyz
  1  'x, y, z'
loop_
 _atom_site_type_symbol
 _atom_site_label
 _atom_site_symmetry_multiplicity
 _atom_site_fract_x
 _atom_site_fract_y
 _atom_site_fract_z
 _atom_site_occupancy
  Ir  Ir0  1  0.03670185  0.50000000  0.04046828  1
  Ir  Ir1  1  0.24058891  0.50000000  0.44004183  1
  Ir  Ir2  1  0.76858446  0.00000000  0.83669377  1
  Ir  Ir3  1  0.37411001  0.00000000  0.04221601  1
  Os  Os4  1  0.43557808  0.50000000  0.83689381  1
  Os  Os5  1  0.97271963  0.00000000  0.24230349  1
  Os  Os6  1  0.17054572  0.00000000  0.63836994  1
  Os  Os7  1  0.83958235  0.50000000  0.64059473  1
  Os  Os8  1  0.57406081  0.00000000  0.43926222  1
  Os  Os9  1  0.64135651  0.50000000  0.24018877  1
