# generated using pymatgen
data_Ir3Os4
_symmetry_space_group_name_H-M   Pm
_cell_length_a   7.30149735
_cell_length_b   4.36828191
_cell_length_c   7.30495836
_cell_angle_alpha   90.00000000
_cell_angle_beta   119.97611374
_cell_angle_gamma   90.00000000
_symmetry_Int_Tables_number   6
_chemical_formula_structural   Ir3Os4
_chemical_formula_sum   'Ir6 Os8'
_cell_volume   201.82522615
_cell_formula_units_Z   2
loop_
 _symmetry_equiv_pos_site_id
 _symmetry_equiv_pos_as_xyz
  1  'x, y, z'
  2  'x, -y, z'
loop_
 _atom_site_type_symbol
 _atom_site_label
 _atom_site_symmetry_multiplicity
 _atom_site_fract_x
 _atom_site_fract_y
 _atom_site_fract_z
 _atom_site_occupancy
  Os  Os0  1  0.01916935  0.00000000  0.30341388  1
  Os  Os1  1  0.06796860  0.50000000  0.54165273  1
  Ir  Ir2  1  0.16054293  0.00000000  0.01675286  1
  Ir  Ir3  1  0.21195407  0.50000000  0.25939602  1
  Ir  Ir4  1  0.30759975  0.00000000  0.73182732  1
  Ir  Ir5  1  0.35680285  0.50000000  0.97219395  1
  Ir  Ir6  1  0.45099311  0.00000000  0.44999453  1
  Os  Os7  1  0.50116497  0.50000000  0.68941007  1
  Ir  Ir8  1  0.59623651  0.00000000  0.16703426  1
  Os  Os9  1  0.64313026  0.50000000  0.40458058  1
  Os  Os10  1  0.73802103  0.00000000  0.87918625  1
  Os  Os11  1  0.78485466  0.50000000  0.11588646  1
  Os  Os12  1  0.87983215  0.00000000  0.59169144  1
  Os  Os13  1  0.92391336  0.50000000  0.82553930  1
