# generated using pymatgen
data_Ir3Os4
_symmetry_space_group_name_H-M   'P 1'
_cell_length_a   4.36828191
_cell_length_b   7.30149735
_cell_length_c   7.30586507
_cell_angle_alpha   119.98843959
_cell_angle_beta   90.00000000
_cell_angle_gamma   90.00000000
_symmetry_Int_Tables_number   1
_chemical_formula_structural   Ir3Os4
_chemical_formula_sum   'Ir6 Os8'
_cell_volume   201.82522615
_cell_formula_units_Z   2
loop_
 _symmetry_equiv_pos_site_id
 _symmetry_equiv_pos_as_xyz
  1  'x, y, z'
loop_
 _atom_site_type_symbol
 _atom_site_label
 _atom_site_symmetry_multiplicity
 _atom_site_fract_x
 _atom_site_fract_y
 _atom_site_fract_z
 _atom_site_occupancy
  Ir  Ir0  1  0.50000000  0.61539110  0.97219395  1
  Ir  Ir1  1  0.00000000  0.85620992  0.01675286  1
  Ir  Ir2  1  0.00000000  0.99900142  0.44999453  1
  Ir  Ir3  1  0.50000000  0.04744194  0.25939602  1
  Ir  Ir4  1  0.00000000  0.42422758  0.73182732  1
  Ir  Ir5  1  0.00000000  0.57079774  0.16703426  1
  Os  Os6  1  0.50000000  0.18824509  0.68941007  1
  Os  Os7  1  0.50000000  0.47368413  0.54165273  1
  Os  Os8  1  0.00000000  0.71185929  0.59169144  1
  Os  Os9  1  0.00000000  0.28424453  0.30341388  1
  Os  Os10  1  0.50000000  0.33103181  0.11588646  1
  Os  Os11  1  0.50000000  0.90162593  0.82553930  1
  Os  Os12  1  0.50000000  0.76145032  0.40458058  1
  Os  Os13  1  0.00000000  0.14116522  0.87918625  1
