# generated using pymatgen
data_Ir3Os3Ru
_symmetry_space_group_name_H-M   Cm
_cell_length_a   11.91182574
_cell_length_b   2.72578843
_cell_length_c   6.68468808
_cell_angle_alpha   90.00000000
_cell_angle_beta   111.98356639
_cell_angle_gamma   90.00000000
_symmetry_Int_Tables_number   8
_chemical_formula_structural   Ir3Os3Ru
_chemical_formula_sum   'Ir6 Os6 Ru2'
_cell_volume   201.26478271
_cell_formula_units_Z   2
loop_
 _symmetry_equiv_pos_site_id
 _symmetry_equiv_pos_as_xyz
  1  'x, y, z'
  2  'x, -y, z'
  3  'x+1/2, y+1/2, z'
  4  'x+1/2, -y+1/2, z'
loop_
 _atom_site_type_symbol
 _atom_site_label
 _atom_site_symmetry_multiplicity
 _atom_site_fract_x
 _atom_site_fract_y
 _atom_site_fract_z
 _atom_site_occupancy
  Ir  Ir0  2  0.02843026  0.00000000  0.57865756  1
  Os  Os1  2  0.10251312  0.50000000  0.29543710  1
  Ir  Ir2  2  0.16946338  0.00000000  0.00799067  1
  Ru  Ru3  2  0.24691965  0.50000000  0.72026054  1
  Os  Os4  2  0.31243366  0.00000000  0.43830481  1
  Ir  Ir5  2  0.38794260  0.50000000  0.14981715  1
  Os  Os6  2  0.45648797  0.00000000  0.86326701  1
