# generated using pymatgen
data_Ir3Os5
_symmetry_space_group_name_H-M   Pm
_cell_length_a   4.75538720
_cell_length_b   8.83611521
_cell_length_c   5.50001294
_cell_angle_alpha   90.00000000
_cell_angle_beta   90.02717595
_cell_angle_gamma   90.00000000
_symmetry_Int_Tables_number   6
_chemical_formula_structural   Ir3Os5
_chemical_formula_sum   'Ir6 Os10'
_cell_volume   231.10583801
_cell_formula_units_Z   2
loop_
 _symmetry_equiv_pos_site_id
 _symmetry_equiv_pos_as_xyz
  1  'x, y, z'
  2  'x, -y, z'
loop_
 _atom_site_type_symbol
 _atom_site_label
 _atom_site_symmetry_multiplicity
 _atom_site_fract_x
 _atom_site_fract_y
 _atom_site_fract_z
 _atom_site_occupancy
  Os  Os0  2  0.47389676  0.24826557  0.77075934  1
  Os  Os1  2  0.48152214  0.25178182  0.26389724  1
  Os  Os2  2  0.97661577  0.24864881  0.01722107  1
  Ir  Ir3  2  0.98195099  0.25129789  0.51706143  1
  Ir  Ir4  1  0.14368304  0.00000000  0.26652120  1
  Os  Os5  1  0.14650329  0.00000000  0.76831696  1
  Ir  Ir6  1  0.31226689  0.50000000  0.01849382  1
  Os  Os7  1  0.31264143  0.50000000  0.51588112  1
  Ir  Ir8  1  0.64342547  0.00000000  0.51841944  1
  Os  Os9  1  0.64714668  0.00000000  0.01597943  1
  Os  Os10  1  0.81158240  0.50000000  0.26873183  1
  Ir  Ir11  1  0.81444918  0.50000000  0.76545885  1
