# generated using pymatgen
data_Ir3Os13W2
_symmetry_space_group_name_H-M   P1
_cell_length_a   5.17864293
_cell_length_b   7.06459336
_cell_length_c   7.32401214
_cell_angle_alpha   98.51893605
_cell_angle_beta   95.79242442
_cell_angle_gamma   95.94449923
_symmetry_Int_Tables_number   1
_chemical_formula_structural   Ir3Os13W2
_chemical_formula_sum   'Ir3 Os13 W2'
_cell_volume   261.72015409
_cell_formula_units_Z   1
loop_
 _symmetry_equiv_pos_site_id
 _symmetry_equiv_pos_as_xyz
  1  'x, y, z'
loop_
 _atom_site_type_symbol
 _atom_site_label
 _atom_site_symmetry_multiplicity
 _atom_site_fract_x
 _atom_site_fract_y
 _atom_site_fract_z
 _atom_site_occupancy
  Os  Os0  1  0.08243327  0.68700349  0.46011713  1
  Os  Os1  1  0.11579923  0.22565265  0.67815444  1
  Os  Os2  1  0.19054946  0.79865071  0.12518429  1
  Os  Os3  1  0.22509081  0.33809496  0.34985361  1
  Os  Os4  1  0.30047929  0.91071884  0.79140094  1
  Ir  Ir5  1  0.33875829  0.44372269  0.01455012  1
  Ir  Ir6  1  0.41256647  0.02299600  0.45843893  1
  Os  Os7  1  0.45002698  0.55812681  0.68050168  1
  Os  Os8  1  0.52595262  0.13139049  0.12401966  1
  Os  Os9  1  0.56261842  0.66967143  0.34805713  1
  Os  Os10  1  0.63543620  0.24235330  0.79419299  1
  Ir  Ir11  1  0.67140045  0.78328623  0.01308923  1
  Os  Os12  1  0.78493459  0.88955462  0.67881465  1
  Os  Os13  1  0.85680830  0.46558223  0.12403368  1
  Os  Os14  1  0.89581375  0.00243322  0.34973518  1
  Os  Os15  1  0.96851110  0.57823204  0.79255267  1
  W  W16  1  0.00519765  0.11468569  0.01616034  1
  W  W17  1  0.74626087  0.35465978  0.45712901  1
