# generated using pymatgen
data_Ir3Os4Ru
_symmetry_space_group_name_H-M   'P 1'
_cell_length_a   3.86554275
_cell_length_b   3.86922194
_cell_length_c   8.17355908
_cell_angle_alpha   76.30865522
_cell_angle_beta   76.32192735
_cell_angle_gamma   90.00000000
_symmetry_Int_Tables_number   1
_chemical_formula_structural   Ir3Os4Ru
_chemical_formula_sum   'Ir3 Os4 Ru1'
_cell_volume   115.20377159
_cell_formula_units_Z   1
loop_
 _symmetry_equiv_pos_site_id
 _symmetry_equiv_pos_as_xyz
  1  'x, y, z'
loop_
 _atom_site_type_symbol
 _atom_site_label
 _atom_site_symmetry_multiplicity
 _atom_site_fract_x
 _atom_site_fract_y
 _atom_site_fract_z
 _atom_site_occupancy
  Ir  Ir0  1  0.12432412  0.62432412  0.75135177  1
  Ir  Ir1  1  0.50000000  0.50000000  0.00000000  1
  Ir  Ir2  1  0.87567588  0.37567588  0.24864823  1
  Os  Os3  1  0.62690682  0.12690682  0.74618637  1
  Os  Os4  1  0.74957569  0.74957569  0.50084862  1
  Os  Os5  1  0.25042431  0.25042431  0.49915138  1
  Os  Os6  1  0.37309318  0.87309318  0.25381363  1
  Ru  Ru7  1  0.00000000  0.00000000  0.00000000  1
