# generated using pymatgen
data_Ir3Os3W2
_symmetry_space_group_name_H-M   'P 1'
_cell_length_a   4.80562459
_cell_length_b   4.40535788
_cell_length_c   5.58197591
_cell_angle_alpha   90.00000000
_cell_angle_beta   90.09499541
_cell_angle_gamma   90.00000000
_symmetry_Int_Tables_number   1
_chemical_formula_structural   Ir3Os3W2
_chemical_formula_sum   'Ir3 Os3 W2'
_cell_volume   118.17303691
_cell_formula_units_Z   1
loop_
 _symmetry_equiv_pos_site_id
 _symmetry_equiv_pos_as_xyz
  1  'x, y, z'
loop_
 _atom_site_type_symbol
 _atom_site_label
 _atom_site_symmetry_multiplicity
 _atom_site_fract_x
 _atom_site_fract_y
 _atom_site_fract_z
 _atom_site_occupancy
  Ir  Ir0  1  0.69344209  0.00000000  0.59192369  1
  Ir  Ir1  1  0.19302180  0.00000000  0.84640831  1
  Ir  Ir2  1  0.85471359  0.50000000  0.34183393  1
  Os  Os3  1  0.69388332  0.00000000  0.09312618  1
  Os  Os4  1  0.36001013  0.50000000  0.09604629  1
  Os  Os5  1  0.35705570  0.50000000  0.59560743  1
  W  W6  1  0.19463011  0.00000000  0.34673105  1
  W  W7  1  0.85664432  0.50000000  0.84311755  1
