# generated using pymatgen
data_Ir3Os5W2
_symmetry_space_group_name_H-M   Pm
_cell_length_a   4.80905790
_cell_length_b   4.39379185
_cell_length_c   7.35160806
_cell_angle_alpha   90.00000000
_cell_angle_beta   108.99988694
_cell_angle_gamma   90.00000000
_symmetry_Int_Tables_number   6
_chemical_formula_structural   Ir3Os5W2
_chemical_formula_sum   'Ir3 Os5 W2'
_cell_volume   146.87645797
_cell_formula_units_Z   1
loop_
 _symmetry_equiv_pos_site_id
 _symmetry_equiv_pos_as_xyz
  1  'x, y, z'
  2  'x, -y, z'
loop_
 _atom_site_type_symbol
 _atom_site_label
 _atom_site_symmetry_multiplicity
 _atom_site_fract_x
 _atom_site_fract_y
 _atom_site_fract_z
 _atom_site_occupancy
  Os  Os0  1  0.05565808  0.50000000  0.78704403  1
  Os  Os1  1  0.19394247  0.00000000  0.38160711  1
  Os  Os2  1  0.25549788  0.50000000  0.18557905  1
  Ir  Ir3  1  0.39041759  0.00000000  0.78149524  1
  Ir  Ir4  1  0.45374445  0.50000000  0.58314606  1
  Os  Os5  1  0.58496253  0.00000000  0.18221732  1
  Ir  Ir6  1  0.86361008  0.50000000  0.38354441  1
  Os  Os7  1  0.99368592  0.00000000  0.98832893  1
  W  W8  1  0.65622162  0.50000000  0.98352683  1
  W  W9  1  0.79045018  0.00000000  0.58664798  1
