# generated using pymatgen
data_Ir3Os5
_symmetry_space_group_name_H-M   'P 1'
_cell_length_a   4.75538720
_cell_length_b   5.50001294
_cell_length_c   8.83611521
_cell_angle_alpha   90.00000000
_cell_angle_beta   90.00000000
_cell_angle_gamma   89.97282405
_symmetry_Int_Tables_number   1
_chemical_formula_structural   Ir3Os5
_chemical_formula_sum   'Ir6 Os10'
_cell_volume   231.10583801
_cell_formula_units_Z   2
loop_
 _symmetry_equiv_pos_site_id
 _symmetry_equiv_pos_as_xyz
  1  'x, y, z'
loop_
 _atom_site_type_symbol
 _atom_site_label
 _atom_site_symmetry_multiplicity
 _atom_site_fract_x
 _atom_site_fract_y
 _atom_site_fract_z
 _atom_site_occupancy
  Ir  Ir0  1  0.81444918  0.23454115  0.50000000  1
  Ir  Ir1  1  0.31226689  0.98150618  0.50000000  1
  Ir  Ir2  1  0.98195099  0.48293857  0.74870211  1
  Ir  Ir3  1  0.98195099  0.48293857  0.25129789  1
  Ir  Ir4  1  0.14368304  0.73347880  0.00000000  1
  Ir  Ir5  1  0.64342547  0.48158056  0.00000000  1
  Os  Os6  1  0.64714668  0.98402057  0.00000000  1
  Os  Os7  1  0.48152214  0.73610276  0.25178182  1
  Os  Os8  1  0.31264143  0.48411888  0.50000000  1
  Os  Os9  1  0.48152214  0.73610276  0.74821818  1
  Os  Os10  1  0.47389676  0.22924066  0.24826557  1
  Os  Os11  1  0.47389676  0.22924066  0.75173443  1
  Os  Os12  1  0.97661577  0.98277893  0.75135119  1
  Os  Os13  1  0.81158240  0.73126817  0.50000000  1
  Os  Os14  1  0.14650329  0.23168304  0.00000000  1
  Os  Os15  1  0.97661577  0.98277893  0.24864881  1
