# generated using pymatgen
data_Ir3Os4Ru
_symmetry_space_group_name_H-M   Immm
_cell_length_a   3.86554275
_cell_length_b   3.86922194
_cell_length_c   15.40503077
_cell_angle_alpha   90.00000000
_cell_angle_beta   90.00000000
_cell_angle_gamma   90.00000000
_symmetry_Int_Tables_number   71
_chemical_formula_structural   Ir3Os4Ru
_chemical_formula_sum   'Ir6 Os8 Ru2'
_cell_volume   230.40754318
_cell_formula_units_Z   2
loop_
 _symmetry_equiv_pos_site_id
 _symmetry_equiv_pos_as_xyz
  1  'x, y, z'
  2  '-x, -y, -z'
  3  '-x, -y, z'
  4  'x, y, -z'
  5  'x, -y, -z'
  6  '-x, y, z'
  7  '-x, y, -z'
  8  'x, -y, z'
  9  'x+1/2, y+1/2, z+1/2'
  10  '-x+1/2, -y+1/2, -z+1/2'
  11  '-x+1/2, -y+1/2, z+1/2'
  12  'x+1/2, y+1/2, -z+1/2'
  13  'x+1/2, -y+1/2, -z+1/2'
  14  '-x+1/2, y+1/2, z+1/2'
  15  '-x+1/2, y+1/2, -z+1/2'
  16  'x+1/2, -y+1/2, z+1/2'
loop_
 _atom_site_type_symbol
 _atom_site_label
 _atom_site_symmetry_multiplicity
 _atom_site_fract_x
 _atom_site_fract_y
 _atom_site_fract_z
 _atom_site_occupancy
  Os  Os0  4  0.00000000  0.00000000  0.25042431  1
  Ir  Ir1  4  0.00000000  0.50000000  0.12432412  1
  Os  Os2  4  0.00000000  0.50000000  0.37309318  1
  Ru  Ru3  2  0.00000000  0.00000000  0.00000000  1
  Ir  Ir4  2  0.00000000  0.00000000  0.50000000  1
