# generated using pymatgen
data_Ir3Os7
_symmetry_space_group_name_H-M   'P 1'
_cell_length_a   4.77863905
_cell_length_b   5.17055989
_cell_length_c   7.29835906
_cell_angle_alpha   84.22203538
_cell_angle_beta   70.85736626
_cell_angle_gamma   117.64598738
_symmetry_Int_Tables_number   1
_chemical_formula_structural   Ir3Os7
_chemical_formula_sum   'Ir3 Os7'
_cell_volume   143.85662945
_cell_formula_units_Z   1
loop_
 _symmetry_equiv_pos_site_id
 _symmetry_equiv_pos_as_xyz
  1  'x, y, z'
loop_
 _atom_site_type_symbol
 _atom_site_label
 _atom_site_symmetry_multiplicity
 _atom_site_fract_x
 _atom_site_fract_y
 _atom_site_fract_z
 _atom_site_occupancy
  Ir  Ir0  1  0.99236564  0.35710812  0.56378459  1
  Ir  Ir1  1  0.02832738  0.85759592  0.66451595  1
  Ir  Ir2  1  0.19386584  0.35707394  0.16427280  1
  Os  Os3  1  0.39223956  0.35719395  0.76635132  1
  Os  Os4  1  0.23090111  0.86128010  0.26311505  1
  Os  Os5  1  0.62680718  0.85429330  0.46216650  1
  Os  Os6  1  0.42363054  0.85692195  0.86673113  1
  Os  Os7  1  0.59770799  0.35997980  0.36311228  1
  Os  Os8  1  0.79399715  0.35505261  0.96269350  1
  Os  Os9  1  0.82887402  0.85682219  0.06314980  1
