# generated using pymatgen
data_Ir3Os13
_symmetry_space_group_name_H-M   'P 1'
_cell_length_a   5.52048227
_cell_length_b   5.52048227
_cell_length_c   8.72425507
_cell_angle_alpha   90.00000000
_cell_angle_beta   90.00000000
_cell_angle_gamma   120.00000000
_symmetry_Int_Tables_number   1
_chemical_formula_structural   Ir3Os13
_chemical_formula_sum   'Ir3 Os13'
_cell_volume   230.25709725
_cell_formula_units_Z   1
loop_
 _symmetry_equiv_pos_site_id
 _symmetry_equiv_pos_as_xyz
  1  'x, y, z'
loop_
 _atom_site_type_symbol
 _atom_site_label
 _atom_site_symmetry_multiplicity
 _atom_site_fract_x
 _atom_site_fract_y
 _atom_site_fract_z
 _atom_site_occupancy
  Ir  Ir0  1  0.00000000  0.00000000  0.75007127  1
  Ir  Ir1  1  0.00000000  0.00000000  0.24992873  1
  Ir  Ir2  1  0.33333333  0.66666667  0.00000000  1
  Os  Os3  1  0.99907518  0.49953759  0.25117844  1
  Os  Os4  1  0.50046241  0.00092482  0.25117844  1
  Os  Os5  1  0.83282361  0.66564721  0.00000000  1
  Os  Os6  1  0.50046241  0.49953759  0.74882156  1
  Os  Os7  1  0.99907518  0.49953759  0.74882156  1
  Os  Os8  1  0.33377831  0.16688916  0.50000000  1
  Os  Os9  1  0.50046241  0.49953759  0.25117844  1
  Os  Os10  1  0.50046241  0.00092482  0.74882156  1
  Os  Os11  1  0.83311084  0.66622169  0.50000000  1
  Os  Os12  1  0.83311084  0.16688916  0.50000000  1
  Os  Os13  1  0.33435279  0.16717639  0.00000000  1
  Os  Os14  1  0.83282361  0.16717639  0.00000000  1
  Os  Os15  1  0.33333333  0.66666667  0.50000000  1
