# generated using pymatgen
data_Ir3Os8Ru
_symmetry_space_group_name_H-M   Cm
_cell_length_a   13.58378720
_cell_length_b   5.49553014
_cell_length_c   4.76398897
_cell_angle_alpha   90.00000000
_cell_angle_beta   103.54721651
_cell_angle_gamma   90.00000000
_symmetry_Int_Tables_number   8
_chemical_formula_structural   Ir3Os8Ru
_chemical_formula_sum   'Ir6 Os16 Ru2'
_cell_volume   345.73762766
_cell_formula_units_Z   2
loop_
 _symmetry_equiv_pos_site_id
 _symmetry_equiv_pos_as_xyz
  1  'x, y, z'
  2  'x, -y, z'
  3  'x+1/2, y+1/2, z'
  4  'x+1/2, -y+1/2, z'
loop_
 _atom_site_type_symbol
 _atom_site_label
 _atom_site_symmetry_multiplicity
 _atom_site_fract_x
 _atom_site_fract_y
 _atom_site_fract_z
 _atom_site_occupancy
  Os  Os0  4  0.15050442  0.24821370  0.22196268  1
  Os  Os1  4  0.31975939  0.24952121  0.00801363  1
  Ir  Ir2  4  0.48563910  0.24950873  0.45118562  1
  Os  Os3  2  0.15597136  0.50000000  0.73436950  1
  Os  Os4  2  0.15673125  0.00000000  0.73408136  1
  Ir  Ir5  2  0.31857337  0.50000000  0.50285422  1
  Ru  Ru6  2  0.31928143  0.00000000  0.50277820  1
  Os  Os7  2  0.48396205  0.00000000  0.94554021  1
  Os  Os8  2  0.48492957  0.50000000  0.94676869  1
