# generated using pymatgen
data_Ir3Os8W3
_symmetry_space_group_name_H-M   Pm
_cell_length_a   7.35111508
_cell_length_b   4.39318731
_cell_length_c   7.36045700
_cell_angle_alpha   90.00000000
_cell_angle_beta   119.92364726
_cell_angle_gamma   90.00000000
_symmetry_Int_Tables_number   6
_chemical_formula_structural   Ir3Os8W3
_chemical_formula_sum   'Ir3 Os8 W3'
_cell_volume   206.01648712
_cell_formula_units_Z   1
loop_
 _symmetry_equiv_pos_site_id
 _symmetry_equiv_pos_as_xyz
  1  'x, y, z'
  2  'x, -y, z'
loop_
 _atom_site_type_symbol
 _atom_site_label
 _atom_site_symmetry_multiplicity
 _atom_site_fract_x
 _atom_site_fract_y
 _atom_site_fract_z
 _atom_site_occupancy
  Os  Os0  1  0.06913080  0.50000000  0.97741223  1
  Os  Os1  1  0.11341975  0.00000000  0.78555945  1
  Os  Os2  1  0.20501280  0.50000000  0.40269665  1
  Os  Os3  1  0.25589334  0.00000000  0.21482030  1
  Os  Os4  1  0.39728439  0.00000000  0.63861576  1
  Os  Os5  1  0.53988758  0.00000000  0.07269713  1
  Ir  Ir6  1  0.63630870  0.50000000  0.69110708  1
  Ir  Ir7  1  0.69072280  0.00000000  0.50481988  1
  Os  Os8  1  0.78890043  0.50000000  0.12619902  1
  Ir  Ir9  1  0.92690497  0.50000000  0.54758609  1
  Os  Os10  1  0.97477333  0.00000000  0.36044014  1
  W  W11  1  0.35302108  0.50000000  0.83257002  1
  W  W12  1  0.49606404  0.50000000  0.26741972  1
  W  W13  1  0.82520016  0.00000000  0.93002142  1
