# generated using pymatgen
data_Ir3Os
_symmetry_space_group_name_H-M   Imm2
_cell_length_a   3.86751832
_cell_length_b   3.87740402
_cell_length_c   23.25228735
_cell_angle_alpha   90.00000000
_cell_angle_beta   90.00000000
_cell_angle_gamma   90.00000000
_symmetry_Int_Tables_number   44
_chemical_formula_structural   Ir3Os
_chemical_formula_sum   'Ir18 Os6'
_cell_volume   348.68969833
_cell_formula_units_Z   6
loop_
 _symmetry_equiv_pos_site_id
 _symmetry_equiv_pos_as_xyz
  1  'x, y, z'
  2  '-x, -y, z'
  3  '-x, y, z'
  4  'x, -y, z'
  5  'x+1/2, y+1/2, z+1/2'
  6  '-x+1/2, -y+1/2, z+1/2'
  7  '-x+1/2, y+1/2, z+1/2'
  8  'x+1/2, -y+1/2, z+1/2'
loop_
 _atom_site_type_symbol
 _atom_site_label
 _atom_site_symmetry_multiplicity
 _atom_site_fract_x
 _atom_site_fract_y
 _atom_site_fract_z
 _atom_site_occupancy
  Ir  Ir0  2  0.00000000  0.00000000  0.14181283  1
  Os  Os1  2  0.00000000  0.00000000  0.30989471  1
  Os  Os2  2  0.00000000  0.00000000  0.47920603  1
  Ir  Ir3  2  0.00000000  0.00000000  0.64442962  1
  Ir  Ir4  2  0.00000000  0.00000000  0.81091001  1
  Ir  Ir5  2  0.00000000  0.00000000  0.97776900  1
  Os  Os6  2  0.00000000  0.50000000  0.05951203  1
  Ir  Ir7  2  0.00000000  0.50000000  0.22900507  1
  Ir  Ir8  2  0.00000000  0.50000000  0.39422200  1
  Ir  Ir9  2  0.00000000  0.50000000  0.55955292  1
  Ir  Ir10  2  0.00000000  0.50000000  0.72778795  1
  Ir  Ir11  2  0.00000000  0.50000000  0.89301655  1
