# generated using pymatgen
data_Ir3Os13
_symmetry_space_group_name_H-M   P-6m2
_cell_length_a   5.52048227
_cell_length_b   5.52048227
_cell_length_c   8.72425507
_cell_angle_alpha   90.00000000
_cell_angle_beta   90.00000000
_cell_angle_gamma   120.00000000
_symmetry_Int_Tables_number   187
_chemical_formula_structural   Ir3Os13
_chemical_formula_sum   'Ir3 Os13'
_cell_volume   230.25709725
_cell_formula_units_Z   1
loop_
 _symmetry_equiv_pos_site_id
 _symmetry_equiv_pos_as_xyz
  1  'x, y, z'
  2  '-x+y, -x, -z'
  3  '-y, x-y, z'
  4  'x, y, -z'
  5  '-x+y, -x, z'
  6  '-y, x-y, -z'
  7  '-y, -x, -z'
  8  'x, x-y, z'
  9  '-x+y, y, -z'
  10  '-y, -x, z'
  11  'x, x-y, -z'
  12  '-x+y, y, z'
loop_
 _atom_site_type_symbol
 _atom_site_label
 _atom_site_symmetry_multiplicity
 _atom_site_fract_x
 _atom_site_fract_y
 _atom_site_fract_z
 _atom_site_occupancy
  Os  Os0  6  0.50046241  0.00092482  0.25117844  1
  Os  Os1  3  0.33377831  0.16688916  0.50000000  1
  Os  Os2  3  0.33435279  0.16717639  0.00000000  1
  Ir  Ir3  2  0.00000000  0.00000000  0.24992873  1
  Ir  Ir4  1  0.33333333  0.66666667  0.00000000  1
  Os  Os5  1  0.33333333  0.66666667  0.50000000  1
