# generated using pymatgen
data_Ir4Os
_symmetry_space_group_name_H-M   C2/c
_cell_length_a   9.27535696
_cell_length_b   4.77760150
_cell_length_c   7.07058603
_cell_angle_alpha   90.00000000
_cell_angle_beta   111.45658615
_cell_angle_gamma   90.00000000
_symmetry_Int_Tables_number   15
_chemical_formula_structural   Ir4Os
_chemical_formula_sum   'Ir16 Os4'
_cell_volume   291.61062792
_cell_formula_units_Z   4
loop_
 _symmetry_equiv_pos_site_id
 _symmetry_equiv_pos_as_xyz
  1  'x, y, z'
  2  '-x, -y, -z'
  3  '-x, y, -z+1/2'
  4  'x, -y, z+1/2'
  5  'x+1/2, y+1/2, z'
  6  '-x+1/2, -y+1/2, -z'
  7  '-x+1/2, y+1/2, -z+1/2'
  8  'x+1/2, -y+1/2, z+1/2'
loop_
 _atom_site_type_symbol
 _atom_site_label
 _atom_site_symmetry_multiplicity
 _atom_site_fract_x
 _atom_site_fract_y
 _atom_site_fract_z
 _atom_site_occupancy
  Ir  Ir0  8  0.09726111  0.16746036  0.94865178  1
  Ir  Ir1  8  0.20033373  0.33484110  0.64923217  1
  Os  Os2  4  0.00000000  0.33232045  0.25000000  1
