# generated using pymatgen
data_Ir4Os
_symmetry_space_group_name_H-M   'P 1'
_cell_length_a   4.77760150
_cell_length_b   5.21674522
_cell_length_c   7.29505991
_cell_angle_alpha   66.42677591
_cell_angle_beta   109.11435123
_cell_angle_gamma   117.25233733
_symmetry_Int_Tables_number   1
_chemical_formula_structural   Ir4Os
_chemical_formula_sum   'Ir8 Os2'
_cell_volume   145.80531396
_cell_formula_units_Z   2
loop_
 _symmetry_equiv_pos_site_id
 _symmetry_equiv_pos_as_xyz
  1  'x, y, z'
loop_
 _atom_site_type_symbol
 _atom_site_label
 _atom_site_symmetry_multiplicity
 _atom_site_fract_x
 _atom_site_fract_y
 _atom_site_fract_z
 _atom_site_occupancy
  Ir  Ir0  1  0.73527854  0.75412956  0.05134822  1
  Ir  Ir1  1  0.92980075  0.74587044  0.44865178  1
  Ir  Ir2  1  0.13450738  0.74856471  0.85076783  1
  Ir  Ir3  1  0.26472146  0.24587044  0.94865178  1
  Ir  Ir4  1  0.86549262  0.25143529  0.14923217  1
  Ir  Ir5  1  0.07019925  0.25412956  0.55134822  1
  Ir  Ir6  1  0.46482517  0.24856471  0.35076783  1
  Ir  Ir7  1  0.53517483  0.75143529  0.64923217  1
  Os  Os8  1  0.66767955  0.25000000  0.75000000  1
  Os  Os9  1  0.33232045  0.75000000  0.25000000  1
