# generated using pymatgen
data_Ir4Os3
_symmetry_space_group_name_H-M   Cc
_cell_length_a   12.06398211
_cell_length_b   4.77841280
_cell_length_c   7.05009956
_cell_angle_alpha   90.00000000
_cell_angle_beta   94.75511870
_cell_angle_gamma   90.00000000
_symmetry_Int_Tables_number   9
_chemical_formula_structural   Ir4Os3
_chemical_formula_sum   'Ir16 Os12'
_cell_volume   405.01604054
_cell_formula_units_Z   4
loop_
 _symmetry_equiv_pos_site_id
 _symmetry_equiv_pos_as_xyz
  1  'x, y, z'
  2  'x, -y, z+1/2'
  3  'x+1/2, y+1/2, z'
  4  'x+1/2, -y+1/2, z+1/2'
loop_
 _atom_site_type_symbol
 _atom_site_label
 _atom_site_symmetry_multiplicity
 _atom_site_fract_x
 _atom_site_fract_y
 _atom_site_fract_z
 _atom_site_occupancy
  Os  Os0  4  0.05096469  0.33334455  0.32861376  1
  Ir  Ir1  4  0.12087917  0.16615304  0.68475918  1
  Os  Os2  4  0.19242689  0.33347368  0.04083240  1
  Os  Os3  4  0.26077817  0.16819335  0.39703664  1
  Ir  Ir4  4  0.33418338  0.33339955  0.75615014  1
  Ir  Ir5  4  0.40470396  0.16440307  0.11132487  1
  Ir  Ir6  4  0.47917693  0.33188763  0.46949353  1
