# generated using pymatgen
data_Ir4Os3
_symmetry_space_group_name_H-M   'P 1'
_cell_length_a   4.77841280
_cell_length_b   6.48792905
_cell_length_c   7.05009956
_cell_angle_alpha   94.42026378
_cell_angle_beta   90.00000000
_cell_angle_gamma   111.60798265
_symmetry_Int_Tables_number   1
_chemical_formula_structural   Ir4Os3
_chemical_formula_sum   'Ir8 Os6'
_cell_volume   202.50802027
_cell_formula_units_Z   2
loop_
 _symmetry_equiv_pos_site_id
 _symmetry_equiv_pos_as_xyz
  1  'x, y, z'
loop_
 _atom_site_type_symbol
 _atom_site_label
 _atom_site_symmetry_multiplicity
 _atom_site_fract_x
 _atom_site_fract_y
 _atom_site_fract_z
 _atom_site_occupancy
  Ir  Ir0  1  0.24030089  0.80940791  0.11132487  1
  Ir  Ir1  1  0.81106456  0.95835387  0.96949353  1
  Ir  Ir2  1  0.00078384  0.66836676  0.75615014  1
  Ir  Ir3  1  0.56910702  0.80940791  0.61132487  1
  Ir  Ir4  1  0.95472613  0.24175834  0.68475918  1
  Ir  Ir5  1  0.14728930  0.95835387  0.46949353  1
  Ir  Ir6  1  0.66758293  0.66836676  0.25615014  1
  Ir  Ir7  1  0.28703221  0.24175834  0.18475918  1
  Os  Os8  1  0.42897151  0.52155633  0.89703664  1
  Os  Os9  1  0.09258482  0.52155633  0.39703664  1
  Os  Os10  1  0.85895321  0.38485377  0.04083240  1
  Os  Os11  1  0.38430924  0.10192937  0.82861376  1
  Os  Os12  1  0.52590056  0.38485377  0.54083240  1
  Os  Os13  1  0.71762014  0.10192937  0.32861376  1
