# generated using pymatgen
data_Ir5Os7
_symmetry_space_group_name_H-M   P1
_cell_length_a   5.48466427
_cell_length_b   5.48544612
_cell_length_c   6.82667095
_cell_angle_alpha   90.02141520
_cell_angle_beta   101.59663990
_cell_angle_gamma   119.95043365
_symmetry_Int_Tables_number   1
_chemical_formula_structural   Ir5Os7
_chemical_formula_sum   'Ir5 Os7'
_cell_volume   173.09359774
_cell_formula_units_Z   1
loop_
 _symmetry_equiv_pos_site_id
 _symmetry_equiv_pos_as_xyz
  1  'x, y, z'
loop_
 _atom_site_type_symbol
 _atom_site_label
 _atom_site_symmetry_multiplicity
 _atom_site_fract_x
 _atom_site_fract_y
 _atom_site_fract_z
 _atom_site_occupancy
  Os  Os0  1  0.00084371  0.35428540  0.97280916  1
  Os  Os1  1  0.05389418  0.63152191  0.63227296  1
  Ir  Ir2  1  0.05568586  0.13249324  0.63948627  1
  Os  Os3  1  0.27441935  0.73576104  0.30542003  1
  Ir  Ir4  1  0.28015371  0.24871710  0.30136960  1
  Ir  Ir5  1  0.50011289  0.85408665  0.96879348  1
  Os  Os6  1  0.50129735  0.35493117  0.97280900  1
  Os  Os7  1  0.55450079  0.63121407  0.63382093  1
  Ir  Ir8  1  0.55693947  0.13290879  0.64033047  1
  Os  Os9  1  0.77412936  0.73622020  0.30543610  1
  Os  Os10  1  0.78123675  0.25067562  0.30105145  1
  Ir  Ir11  1  0.99892040  0.85334736  0.96662361  1
