# generated using pymatgen
data_Ir5Os11
_symmetry_space_group_name_H-M   'P 1'
_cell_length_a   5.47452360
_cell_length_b   5.47696385
_cell_length_c   8.86463765
_cell_angle_alpha   90.00000000
_cell_angle_beta   90.00000000
_cell_angle_gamma   119.98526251
_symmetry_Int_Tables_number   1
_chemical_formula_structural   Ir5Os11
_chemical_formula_sum   'Ir5 Os11'
_cell_volume   230.21960363
_cell_formula_units_Z   1
loop_
 _symmetry_equiv_pos_site_id
 _symmetry_equiv_pos_as_xyz
  1  'x, y, z'
loop_
 _atom_site_type_symbol
 _atom_site_label
 _atom_site_symmetry_multiplicity
 _atom_site_fract_x
 _atom_site_fract_y
 _atom_site_fract_z
 _atom_site_occupancy
  Ir  Ir0  1  0.45081158  0.40168144  0.00000000  1
  Ir  Ir1  1  0.78474550  0.56949100  0.50000000  1
  Ir  Ir2  1  0.28439990  0.56879980  0.50000000  1
  Ir  Ir3  1  0.95086986  0.40168144  0.00000000  1
  Ir  Ir4  1  0.45114631  0.90229262  0.00000000  1
  Os  Os5  1  0.61683024  0.23366047  0.74700795  1
  Os  Os6  1  0.11608283  0.23216566  0.25119639  1
  Os  Os7  1  0.11764630  0.73788499  0.24962552  1
  Os  Os8  1  0.11764630  0.73788499  0.75037448  1
  Os  Os9  1  0.78421546  0.06798048  0.50000000  1
  Os  Os10  1  0.61683024  0.23366047  0.25299205  1
  Os  Os11  1  0.28376503  0.06798048  0.50000000  1
  Os  Os12  1  0.95095715  0.90191429  0.00000000  1
  Os  Os13  1  0.11608283  0.23216566  0.74880361  1
  Os  Os14  1  0.62023869  0.73788499  0.24962552  1
  Os  Os15  1  0.62023869  0.73788499  0.75037448  1
