# generated using pymatgen
data_Ir5Os11
_symmetry_space_group_name_H-M   Amm2
_cell_length_a   8.86463765
_cell_length_b   5.47452360
_cell_length_c   9.48778811
_cell_angle_alpha   90.00000000
_cell_angle_beta   90.00000000
_cell_angle_gamma   90.00000000
_symmetry_Int_Tables_number   38
_chemical_formula_structural   Ir5Os11
_chemical_formula_sum   'Ir10 Os22'
_cell_volume   460.43920726
_cell_formula_units_Z   2
loop_
 _symmetry_equiv_pos_site_id
 _symmetry_equiv_pos_as_xyz
  1  'x, y, z'
  2  '-x, -y, z'
  3  '-x, y, z'
  4  'x, -y, z'
  5  'x, y+1/2, z+1/2'
  6  '-x, -y+1/2, z+1/2'
  7  '-x, y+1/2, z+1/2'
  8  'x, -y+1/2, z+1/2'
loop_
 _atom_site_type_symbol
 _atom_site_label
 _atom_site_symmetry_multiplicity
 _atom_site_fract_x
 _atom_site_fract_y
 _atom_site_fract_z
 _atom_site_occupancy
  Os  Os0  8  0.24962552  0.24870380  0.86894249  1
  Ir  Ir1  4  0.00000000  0.24997086  0.20084072  1
  Os  Os2  4  0.25119639  0.00000000  0.11608283  1
  Os  Os3  4  0.25299205  0.00000000  0.61683024  1
  Os  Os4  4  0.50000000  0.24977478  0.03399024  1
  Ir  Ir5  2  0.00000000  0.00000000  0.45114631  1
  Os  Os6  2  0.00000000  0.00000000  0.95095715  1
  Ir  Ir7  2  0.50000000  0.00000000  0.28439990  1
  Ir  Ir8  2  0.50000000  0.00000000  0.78474550  1
