# generated using pymatgen
data_Ir5Os2
_symmetry_space_group_name_H-M   P-1
_cell_length_a   4.77159006
_cell_length_b   6.49748148
_cell_length_c   7.05479359
_cell_angle_alpha   85.90420553
_cell_angle_beta   89.98008095
_cell_angle_gamma   68.46791817
_symmetry_Int_Tables_number   2
_chemical_formula_structural   Ir5Os2
_chemical_formula_sum   'Ir10 Os4'
_cell_volume   202.85937927
_cell_formula_units_Z   2
loop_
 _symmetry_equiv_pos_site_id
 _symmetry_equiv_pos_as_xyz
  1  'x, y, z'
  2  '-x, -y, -z'
loop_
 _atom_site_type_symbol
 _atom_site_label
 _atom_site_symmetry_multiplicity
 _atom_site_fract_x
 _atom_site_fract_y
 _atom_site_fract_z
 _atom_site_occupancy
  Ir  Ir0  2  0.04822439  0.06880729  0.32192443  1
  Os  Os1  2  0.09273420  0.64283834  0.39353600  1
  Ir  Ir2  2  0.19044332  0.78622241  0.03692062  1
  Ir  Ir3  2  0.24046810  0.35494191  0.10834786  1
  Ir  Ir4  2  0.33390059  0.49793837  0.74926111  1
  Os  Os5  2  0.38057910  0.07088118  0.82141787  1
  Ir  Ir6  2  0.47528982  0.21565008  0.46496176  1
