# generated using pymatgen
data_Ir5Os6Ru
_symmetry_space_group_name_H-M   'P 1'
_cell_length_a   3.86819123
_cell_length_b   3.86819123
_cell_length_c   11.90540236
_cell_angle_alpha   99.34943897
_cell_angle_beta   99.34943897
_cell_angle_gamma   90.00000000
_symmetry_Int_Tables_number   1
_chemical_formula_structural   Ir5Os6Ru
_chemical_formula_sum   'Ir5 Os6 Ru1'
_cell_volume   173.37424754
_cell_formula_units_Z   1
loop_
 _symmetry_equiv_pos_site_id
 _symmetry_equiv_pos_as_xyz
  1  'x, y, z'
loop_
 _atom_site_type_symbol
 _atom_site_label
 _atom_site_symmetry_multiplicity
 _atom_site_fract_x
 _atom_site_fract_y
 _atom_site_fract_z
 _atom_site_occupancy
  Ir  Ir0  1  0.15012967  0.15012967  0.30025934  1
  Ir  Ir1  1  0.90076430  0.40076430  0.80152861  1
  Ir  Ir2  1  0.81540678  0.81540678  0.63081356  1
  Ir  Ir3  1  0.65043288  0.65043288  0.30086577  1
  Ir  Ir4  1  0.40076430  0.90076430  0.80152861  1
  Os  Os5  1  0.23465016  0.73465016  0.46930031  1
  Os  Os6  1  0.31568312  0.31568312  0.63136623  1
  Os  Os7  1  0.06533288  0.56533288  0.13066576  1
  Os  Os8  1  0.73465016  0.23465016  0.46930031  1
  Os  Os9  1  0.98458389  0.98458389  0.96916777  1
  Os  Os10  1  0.56533288  0.06533288  0.13066576  1
  Ru  Ru11  1  0.48512916  0.48512916  0.97025832  1
