# generated using pymatgen
data_Ir5Os3
_symmetry_space_group_name_H-M   'P 1'
_cell_length_a   5.47890044
_cell_length_b   5.49213965
_cell_length_c   8.88578997
_cell_angle_alpha   90.00000000
_cell_angle_beta   90.00000000
_cell_angle_gamma   119.92029084
_symmetry_Int_Tables_number   1
_chemical_formula_structural   Ir5Os3
_chemical_formula_sum   'Ir10 Os6'
_cell_volume   231.74475905
_cell_formula_units_Z   2
loop_
 _symmetry_equiv_pos_site_id
 _symmetry_equiv_pos_as_xyz
  1  'x, y, z'
loop_
 _atom_site_type_symbol
 _atom_site_label
 _atom_site_symmetry_multiplicity
 _atom_site_fract_x
 _atom_site_fract_y
 _atom_site_fract_z
 _atom_site_occupancy
  Ir  Ir0  1  0.08389132  0.16778264  0.75000000  1
  Ir  Ir1  1  0.91497447  0.33093115  0.25000000  1
  Ir  Ir2  1  0.91610868  0.83221736  0.25000000  1
  Ir  Ir3  1  0.58404332  0.66906885  0.75000000  1
  Ir  Ir4  1  0.41595668  0.33093115  0.25000000  1
  Ir  Ir5  1  0.74594095  0.00000000  0.50000000  1
  Ir  Ir6  1  0.08502553  0.66906885  0.75000000  1
  Ir  Ir7  1  0.25405905  0.00000000  0.50000000  1
  Ir  Ir8  1  0.74594095  0.00000000  0.00000000  1
  Ir  Ir9  1  0.25405905  0.00000000  0.00000000  1
  Os  Os10  1  0.25134942  0.50269885  0.49754811  1
  Os  Os11  1  0.25134942  0.50269885  0.00245189  1
  Os  Os12  1  0.58317427  0.16634855  0.75000000  1
  Os  Os13  1  0.74865058  0.49730115  0.50245189  1
  Os  Os14  1  0.74865058  0.49730115  0.99754811  1
  Os  Os15  1  0.41682573  0.83365145  0.25000000  1
