# generated using pymatgen
data_Ir5Os4Ru
_symmetry_space_group_name_H-M   Cm
_cell_length_a   13.92670841
_cell_length_b   3.86230617
_cell_length_c   5.47730234
_cell_angle_alpha   90.00000000
_cell_angle_beta   101.24793271
_cell_angle_gamma   90.00000000
_symmetry_Int_Tables_number   8
_chemical_formula_structural   Ir5Os4Ru
_chemical_formula_sum   'Ir10 Os8 Ru2'
_cell_volume   288.96081335
_cell_formula_units_Z   2
loop_
 _symmetry_equiv_pos_site_id
 _symmetry_equiv_pos_as_xyz
  1  'x, y, z'
  2  'x, -y, z'
  3  'x+1/2, y+1/2, z'
  4  'x+1/2, -y+1/2, z'
loop_
 _atom_site_type_symbol
 _atom_site_label
 _atom_site_symmetry_multiplicity
 _atom_site_fract_x
 _atom_site_fract_y
 _atom_site_fract_z
 _atom_site_occupancy
  Ir  Ir0  2  0.05957790  0.50000000  0.12676941  1
  Os  Os1  2  0.06266041  0.50000000  0.63390962  1
  Ir  Ir2  2  0.16003379  0.00000000  0.43221997  1
  Os  Os3  2  0.16023760  0.00000000  0.92584925  1
  Ru  Ru4  2  0.26060444  0.50000000  0.73163923  1
  Ir  Ir5  2  0.26085361  0.50000000  0.22486650  1
  Os  Os6  2  0.35885002  0.00000000  0.02476855  1
  Ir  Ir7  2  0.36283272  0.00000000  0.53243582  1
  Ir  Ir8  2  0.45965467  0.50000000  0.32861739  1
  Os  Os9  2  0.46055183  0.50000000  0.82919220  1
