# generated using pymatgen
data_Ir5Os5Ru2
_symmetry_space_group_name_H-M   'P 1'
_cell_length_a   3.85497847
_cell_length_b   5.45312603
_cell_length_c   8.19995703
_cell_angle_alpha   90.06083799
_cell_angle_beta   90.00000000
_cell_angle_gamma   90.00000000
_symmetry_Int_Tables_number   1
_chemical_formula_structural   Ir5Os5Ru2
_chemical_formula_sum   'Ir5 Os5 Ru2'
_cell_volume   172.37680385
_cell_formula_units_Z   1
loop_
 _symmetry_equiv_pos_site_id
 _symmetry_equiv_pos_as_xyz
  1  'x, y, z'
loop_
 _atom_site_type_symbol
 _atom_site_label
 _atom_site_symmetry_multiplicity
 _atom_site_fract_x
 _atom_site_fract_y
 _atom_site_fract_z
 _atom_site_occupancy
  Ir  Ir0  1  0.00000000  0.35595151  0.16207834  1
  Ir  Ir1  1  0.50000000  0.60715065  0.32829808  1
  Ir  Ir2  1  0.50000000  0.60396595  0.66732098  1
  Ir  Ir3  1  0.00000000  0.85548233  0.83145398  1
  Ir  Ir4  1  0.50000000  0.10610619  0.99755490  1
  Os  Os5  1  0.00000000  0.86136279  0.49174135  1
  Os  Os6  1  0.00000000  0.35841981  0.82933904  1
  Os  Os7  1  0.50000000  0.60428684  0.99480311  1
  Os  Os8  1  0.00000000  0.35062136  0.50044157  1
  Os  Os9  1  0.50000000  0.10230487  0.33582003  1
  Ru  Ru10  1  0.50000000  0.10808714  0.65871113  1
  Ru  Ru11  1  0.00000000  0.85490084  0.16687924  1
