# generated using pymatgen
data_Ir5Os6Ru
_symmetry_space_group_name_H-M   I4mm
_cell_length_a   3.86819123
_cell_length_b   3.86819123
_cell_length_c   23.17387784
_cell_angle_alpha   90.00000000
_cell_angle_beta   90.00000000
_cell_angle_gamma   90.00000000
_symmetry_Int_Tables_number   107
_chemical_formula_structural   Ir5Os6Ru
_chemical_formula_sum   'Ir10 Os12 Ru2'
_cell_volume   346.74849508
_cell_formula_units_Z   2
loop_
 _symmetry_equiv_pos_site_id
 _symmetry_equiv_pos_as_xyz
  1  'x, y, z'
  2  '-y, x, z'
  3  '-x, -y, z'
  4  'y, -x, z'
  5  '-x, y, z'
  6  'y, x, z'
  7  'x, -y, z'
  8  '-y, -x, z'
  9  'x+1/2, y+1/2, z+1/2'
  10  '-y+1/2, x+1/2, z+1/2'
  11  '-x+1/2, -y+1/2, z+1/2'
  12  'y+1/2, -x+1/2, z+1/2'
  13  '-x+1/2, y+1/2, z+1/2'
  14  'y+1/2, x+1/2, z+1/2'
  15  'x+1/2, -y+1/2, z+1/2'
  16  '-y+1/2, -x+1/2, z+1/2'
loop_
 _atom_site_type_symbol
 _atom_site_label
 _atom_site_symmetry_multiplicity
 _atom_site_fract_x
 _atom_site_fract_y
 _atom_site_fract_z
 _atom_site_occupancy
  Os  Os0  4  0.00000000  0.50000000  0.06533288  1
  Os  Os1  4  0.00000000  0.50000000  0.23465016  1
  Ir  Ir2  4  0.00000000  0.50000000  0.40076430  1
  Ir  Ir3  2  0.00000000  0.00000000  0.15012967  1
  Os  Os4  2  0.00000000  0.00000000  0.31568312  1
  Ru  Ru5  2  0.00000000  0.00000000  0.48512916  1
  Ir  Ir6  2  0.00000000  0.00000000  0.65043288  1
  Ir  Ir7  2  0.00000000  0.00000000  0.81540678  1
  Os  Os8  2  0.00000000  0.00000000  0.98458389  1
