# generated using pymatgen
data_Ir5Os2
_symmetry_space_group_name_H-M   'P 1'
_cell_length_a   4.77159006
_cell_length_b   6.49827123
_cell_length_c   7.05479359
_cell_angle_alpha   85.91936774
_cell_angle_beta   90.01991905
_cell_angle_gamma   68.45027684
_symmetry_Int_Tables_number   1
_chemical_formula_structural   Ir5Os2
_chemical_formula_sum   'Ir10 Os4'
_cell_volume   202.85937927
_cell_formula_units_Z   2
loop_
 _symmetry_equiv_pos_site_id
 _symmetry_equiv_pos_as_xyz
  1  'x, y, z'
loop_
 _atom_site_type_symbol
 _atom_site_label
 _atom_site_symmetry_multiplicity
 _atom_site_fract_x
 _atom_site_fract_y
 _atom_site_fract_z
 _atom_site_occupancy
  Ir  Ir0  1  0.02333427  0.78622241  0.03692062  1
  Ir  Ir1  1  0.97666573  0.21377759  0.96307938  1
  Ir  Ir2  1  0.83183897  0.50206163  0.25073889  1
  Ir  Ir3  1  0.59541002  0.64505809  0.89165214  1
  Ir  Ir4  1  0.40458998  0.35494191  0.10834786  1
  Ir  Ir5  1  0.30906010  0.21565008  0.46496176  1
  Ir  Ir6  1  0.88296832  0.06880729  0.32192443  1
  Ir  Ir7  1  0.11703168  0.93119271  0.67807557  1
  Ir  Ir8  1  0.69093990  0.78434992  0.53503824  1
  Ir  Ir9  1  0.16816103  0.49793837  0.74926111  1
  Os  Os10  1  0.73557255  0.35716166  0.60646400  1
  Os  Os11  1  0.26442745  0.64283834  0.39353600  1
  Os  Os12  1  0.45146028  0.92911882  0.17858213  1
  Os  Os13  1  0.54853972  0.07088118  0.82141787  1
