# generated using pymatgen
data_Ir5Os4Ru
_symmetry_space_group_name_H-M   'P 1'
_cell_length_a   3.86230617
_cell_length_b   5.47730234
_cell_length_c   7.22617838
_cell_angle_alpha   100.83378916
_cell_angle_beta   105.50033662
_cell_angle_gamma   90.00000000
_symmetry_Int_Tables_number   1
_chemical_formula_structural   Ir5Os4Ru
_chemical_formula_sum   'Ir5 Os4 Ru1'
_cell_volume   144.48040667
_cell_formula_units_Z   1
loop_
 _symmetry_equiv_pos_site_id
 _symmetry_equiv_pos_as_xyz
  1  'x, y, z'
loop_
 _atom_site_type_symbol
 _atom_site_label
 _atom_site_symmetry_multiplicity
 _atom_site_fract_x
 _atom_site_fract_y
 _atom_site_fract_z
 _atom_site_occupancy
  Ir  Ir0  1  0.16003379  0.43221997  0.32006758  1
  Ir  Ir1  1  0.76085361  0.22486650  0.52170722  1
  Ir  Ir2  1  0.95965467  0.32861739  0.91930933  1
  Ir  Ir3  1  0.36283272  0.53243582  0.72566545  1
  Ir  Ir4  1  0.55957790  0.12676941  0.11915581  1
  Os  Os5  1  0.16023760  0.92584925  0.32047519  1
  Os  Os6  1  0.96055183  0.82919220  0.92110366  1
  Os  Os7  1  0.35885002  0.02476855  0.71770003  1
  Os  Os8  1  0.56266041  0.63390962  0.12532081  1
  Ru  Ru9  1  0.76060444  0.73163923  0.52120888  1
