# generated using pymatgen
data_Ir6Os5
_symmetry_space_group_name_H-M   Cm
_cell_length_a   13.94766942
_cell_length_b   3.86029907
_cell_length_c   6.12337626
_cell_angle_alpha   90.00000000
_cell_angle_beta   105.30238676
_cell_angle_gamma   90.00000000
_symmetry_Int_Tables_number   8
_chemical_formula_structural   Ir6Os5
_chemical_formula_sum   'Ir12 Os10'
_cell_volume   318.00699946
_cell_formula_units_Z   2
loop_
 _symmetry_equiv_pos_site_id
 _symmetry_equiv_pos_as_xyz
  1  'x, y, z'
  2  'x, -y, z'
  3  'x+1/2, y+1/2, z'
  4  'x+1/2, -y+1/2, z'
loop_
 _atom_site_type_symbol
 _atom_site_label
 _atom_site_symmetry_multiplicity
 _atom_site_fract_x
 _atom_site_fract_y
 _atom_site_fract_z
 _atom_site_occupancy
  Ir  Ir0  2  0.00235945  0.50000000  0.23382655  1
  Os  Os1  2  0.04716929  0.00000000  0.95422483  1
  Ir  Ir2  2  0.09268260  0.50000000  0.68840050  1
  Ir  Ir3  2  0.13919682  0.00000000  0.41371986  1
  Ir  Ir4  2  0.18351491  0.50000000  0.13569950  1
  Os  Os5  2  0.23142083  0.00000000  0.87482511  1
  Ir  Ir6  2  0.27405761  0.50000000  0.59675523  1
  Os  Os7  2  0.32439901  0.00000000  0.31977179  1
  Os  Os8  2  0.36377635  0.50000000  0.05371889  1
  Ir  Ir9  2  0.41229707  0.00000000  0.77544019  1
  Os  Os10  2  0.45355843  0.50000000  0.50284670  1
