# generated using pymatgen
data_Ir6Os9W
_symmetry_space_group_name_H-M   'P 1'
_cell_length_a   4.79811562
_cell_length_b   5.52223933
_cell_length_c   8.75322624
_cell_angle_alpha   90.08811379
_cell_angle_beta   90.03838774
_cell_angle_gamma   89.99132783
_symmetry_Int_Tables_number   1
_chemical_formula_structural   Ir6Os9W
_chemical_formula_sum   'Ir6 Os9 W1'
_cell_volume   231.92815391
_cell_formula_units_Z   1
loop_
 _symmetry_equiv_pos_site_id
 _symmetry_equiv_pos_as_xyz
  1  'x, y, z'
loop_
 _atom_site_type_symbol
 _atom_site_label
 _atom_site_symmetry_multiplicity
 _atom_site_fract_x
 _atom_site_fract_y
 _atom_site_fract_z
 _atom_site_occupancy
  Ir  Ir0  1  0.56787209  0.74527066  0.78199433  1
  Ir  Ir1  1  0.56841552  0.74631198  0.28015940  1
  Ir  Ir2  1  0.06714007  0.49182185  0.78101479  1
  Ir  Ir3  1  0.56770302  0.24119277  0.28196517  1
  Ir  Ir4  1  0.90273057  0.74415916  0.52895459  1
  Ir  Ir5  1  0.90128041  0.24253241  0.03158379  1
  Os  Os6  1  0.07352341  0.99337257  0.28087942  1
  Os  Os7  1  0.07034592  0.99433148  0.78099089  1
  Os  Os8  1  0.40404065  0.49224778  0.53120777  1
  Os  Os9  1  0.40068489  0.99241660  0.02943907  1
  Os  Os10  1  0.90222730  0.24252921  0.53112745  1
  Os  Os11  1  0.90340105  0.74441496  0.03189800  1
  Os  Os12  1  0.56667097  0.24234409  0.78016290  1
  Os  Os13  1  0.40028686  0.99490142  0.53255661  1
  Os  Os14  1  0.40436082  0.49362996  0.03110991  1
  W  W15  1  0.07198184  0.49312610  0.28085318  1
