# generated using pymatgen
data_Ir6Os5
_symmetry_space_group_name_H-M   'P 1'
_cell_length_a   3.86029907
_cell_length_b   6.12337626
_cell_length_c   7.23601049
_cell_angle_alpha   104.73513833
_cell_angle_beta   105.47050180
_cell_angle_gamma   90.00000000
_symmetry_Int_Tables_number   1
_chemical_formula_structural   Ir6Os5
_chemical_formula_sum   'Ir6 Os5'
_cell_volume   159.00349973
_cell_formula_units_Z   1
loop_
 _symmetry_equiv_pos_site_id
 _symmetry_equiv_pos_as_xyz
  1  'x, y, z'
loop_
 _atom_site_type_symbol
 _atom_site_label
 _atom_site_symmetry_multiplicity
 _atom_site_fract_x
 _atom_site_fract_y
 _atom_site_fract_z
 _atom_site_occupancy
  Ir  Ir0  1  0.86080318  0.58628014  0.72160636  1
  Ir  Ir1  1  0.40731740  0.31159950  0.81463480  1
  Ir  Ir2  1  0.58770293  0.22455981  0.17540586  1
  Ir  Ir3  1  0.49764055  0.76617345  0.99528110  1
  Ir  Ir4  1  0.22594239  0.40324477  0.45188479  1
  Ir  Ir5  1  0.31648509  0.86430050  0.63297019  1
  Os  Os6  1  0.95283071  0.04577517  0.90566143  1
  Os  Os7  1  0.13622365  0.94628111  0.27244731  1
  Os  Os8  1  0.76857917  0.12517489  0.53715834  1
  Os  Os9  1  0.04644157  0.49715330  0.09288315  1
  Os  Os10  1  0.67560099  0.68022821  0.35120197  1
