# generated using pymatgen
data_Ir7Os3
_symmetry_space_group_name_H-M   'P 1'
_cell_length_a   3.86710969
_cell_length_b   5.47617238
_cell_length_c   7.23553115
_cell_angle_alpha   100.77789847
_cell_angle_beta   105.49953368
_cell_angle_gamma   90.00000000
_symmetry_Int_Tables_number   1
_chemical_formula_structural   Ir7Os3
_chemical_formula_sum   'Ir7 Os3'
_cell_volume   144.84715215
_cell_formula_units_Z   1
loop_
 _symmetry_equiv_pos_site_id
 _symmetry_equiv_pos_as_xyz
  1  'x, y, z'
loop_
 _atom_site_type_symbol
 _atom_site_label
 _atom_site_symmetry_multiplicity
 _atom_site_fract_x
 _atom_site_fract_y
 _atom_site_fract_z
 _atom_site_occupancy
  Ir  Ir0  1  0.00000000  0.50000000  0.00000000  1
  Ir  Ir1  1  0.60073791  0.80404657  0.20147583  1
  Ir  Ir2  1  0.79708662  0.39632760  0.59417323  1
  Ir  Ir3  1  0.39926209  0.19595343  0.79852417  1
  Ir  Ir4  1  0.20291338  0.60367240  0.40582677  1
  Ir  Ir5  1  0.59818547  0.29453173  0.19637094  1
  Ir  Ir6  1  0.40181453  0.70546827  0.80362906  1
  Os  Os7  1  0.79927627  0.90248810  0.59855253  1
  Os  Os8  1  0.00000000  0.00000000  0.00000000  1
  Os  Os9  1  0.20072373  0.09751190  0.40144747  1
