# generated using pymatgen
data_Ir7Os2W
_symmetry_space_group_name_H-M   C2/m
_cell_length_a   14.04057079
_cell_length_b   3.87508921
_cell_length_c   5.49338553
_cell_angle_alpha   90.00000000
_cell_angle_beta   100.96448309
_cell_angle_gamma   90.00000000
_symmetry_Int_Tables_number   12
_chemical_formula_structural   Ir7Os2W
_chemical_formula_sum   'Ir14 Os4 W2'
_cell_volume   293.43057709
_cell_formula_units_Z   2
loop_
 _symmetry_equiv_pos_site_id
 _symmetry_equiv_pos_as_xyz
  1  'x, y, z'
  2  '-x, -y, -z'
  3  '-x, y, -z'
  4  'x, -y, z'
  5  'x+1/2, y+1/2, z'
  6  '-x+1/2, -y+1/2, -z'
  7  '-x+1/2, y+1/2, -z'
  8  'x+1/2, -y+1/2, z'
loop_
 _atom_site_type_symbol
 _atom_site_label
 _atom_site_symmetry_multiplicity
 _atom_site_fract_x
 _atom_site_fract_y
 _atom_site_fract_z
 _atom_site_occupancy
  Ir  Ir0  4  0.09710036  0.00000000  0.80034150  1
  Ir  Ir1  4  0.10002866  0.00000000  0.29983418  1
  Ir  Ir2  4  0.20021213  0.50000000  0.10273048  1
  Os  Os3  4  0.20590739  0.50000000  0.59813491  1
  Ir  Ir4  2  0.00000000  0.50000000  0.50000000  1
  W  W5  2  0.00000000  0.50000000  0.00000000  1
