# generated using pymatgen
data_Ir7Os2W3
_symmetry_space_group_name_H-M   'P 1'
_cell_length_a   5.51475552
_cell_length_b   5.55407662
_cell_length_c   6.88094751
_cell_angle_alpha   101.90397264
_cell_angle_beta   90.00000000
_cell_angle_gamma   119.76608099
_symmetry_Int_Tables_number   1
_chemical_formula_structural   Ir7Os2W3
_chemical_formula_sum   'Ir7 Os2 W3'
_cell_volume   177.71120504
_cell_formula_units_Z   1
loop_
 _symmetry_equiv_pos_site_id
 _symmetry_equiv_pos_as_xyz
  1  'x, y, z'
loop_
 _atom_site_type_symbol
 _atom_site_label
 _atom_site_symmetry_multiplicity
 _atom_site_fract_x
 _atom_site_fract_y
 _atom_site_fract_z
 _atom_site_occupancy
  Ir  Ir0  1  0.85930326  0.21973469  0.76089434  1
  Ir  Ir1  1  0.74411789  0.99049300  0.09413139  1
  Ir  Ir2  1  0.36043143  0.21973469  0.76089434  1
  Ir  Ir3  1  0.64299018  0.77724352  0.42940013  1
  Ir  Ir4  1  0.74407903  0.48815807  0.09518321  1
  Ir  Ir5  1  0.13425334  0.77724352  0.42940013  1
  Ir  Ir6  1  0.24637511  0.99049300  0.09413139  1
  Os  Os7  1  0.13702953  0.27405905  0.43077529  1
  Os  Os8  1  0.85585334  0.71170668  0.75180566  1
  W  W9  1  0.35694854  0.71389707  0.75037534  1
  W  W10  1  0.63973903  0.27947806  0.43210596  1
  W  W11  1  0.24433708  0.48867415  0.10565036  1
