# generated using pymatgen
data_Ir7Os2W
_symmetry_space_group_name_H-M   'P 1'
_cell_length_a   3.87508921
_cell_length_b   5.49338553
_cell_length_c   7.28275265
_cell_angle_alpha   100.56469944
_cell_angle_beta   105.42909428
_cell_angle_gamma   90.00000000
_symmetry_Int_Tables_number   1
_chemical_formula_structural   Ir7Os2W
_chemical_formula_sum   'Ir7 Os2 W1'
_cell_volume   146.71528855
_cell_formula_units_Z   1
loop_
 _symmetry_equiv_pos_site_id
 _symmetry_equiv_pos_as_xyz
  1  'x, y, z'
loop_
 _atom_site_type_symbol
 _atom_site_label
 _atom_site_symmetry_multiplicity
 _atom_site_fract_x
 _atom_site_fract_y
 _atom_site_fract_z
 _atom_site_occupancy
  Ir  Ir0  1  0.70021213  0.10273048  0.40042426  1
  Ir  Ir1  1  0.50000000  0.50000000  0.00000000  1
  Ir  Ir2  1  0.10002866  0.29983418  0.20005732  1
  Ir  Ir3  1  0.29978787  0.89726952  0.59957574  1
  Ir  Ir4  1  0.09710036  0.80034150  0.19420071  1
  Ir  Ir5  1  0.90289964  0.19965850  0.80579929  1
  Ir  Ir6  1  0.89997134  0.70016582  0.79994268  1
  Os  Os7  1  0.70590739  0.59813491  0.41181478  1
  Os  Os8  1  0.29409261  0.40186509  0.58818522  1
  W  W9  1  0.50000000  0.00000000  0.00000000  1
