# generated using pymatgen
data_Ir7Os5
_symmetry_space_group_name_H-M   Pm
_cell_length_a   4.77201129
_cell_length_b   4.38699823
_cell_length_c   8.28561643
_cell_angle_alpha   90.00000000
_cell_angle_beta   90.00562508
_cell_angle_gamma   90.00000000
_symmetry_Int_Tables_number   6
_chemical_formula_structural   Ir7Os5
_chemical_formula_sum   'Ir7 Os5'
_cell_volume   173.45776398
_cell_formula_units_Z   1
loop_
 _symmetry_equiv_pos_site_id
 _symmetry_equiv_pos_as_xyz
  1  'x, y, z'
  2  'x, -y, z'
loop_
 _atom_site_type_symbol
 _atom_site_label
 _atom_site_symmetry_multiplicity
 _atom_site_fract_x
 _atom_site_fract_y
 _atom_site_fract_z
 _atom_site_occupancy
  Ir  Ir0  1  0.31808394  0.50000000  0.13248614  1
  Os  Os1  1  0.32272284  0.50000000  0.46617601  1
  Ir  Ir2  1  0.32289388  0.50000000  0.79647713  1
  Os  Os3  1  0.48523908  0.00000000  0.29820201  1
  Ir  Ir4  1  0.48917977  0.00000000  0.96846627  1
  Ir  Ir5  1  0.49058053  0.00000000  0.63023006  1
  Ir  Ir6  1  0.81858154  0.50000000  0.29898986  1
  Os  Os7  1  0.82207553  0.50000000  0.96394969  1
  Os  Os8  1  0.82319049  0.50000000  0.63264632  1
  Os  Os9  1  0.98479214  0.00000000  0.13180186  1
  Ir  Ir10  1  0.98801738  0.00000000  0.79979743  1
  Ir  Ir11  1  0.98926864  0.00000000  0.46302251  1
