# generated using pymatgen
data_Ir7Os9
_symmetry_space_group_name_H-M   Pm
_cell_length_a   5.51592198
_cell_length_b   4.37532682
_cell_length_c   9.55392273
_cell_angle_alpha   90.00000000
_cell_angle_beta   90.00285130
_cell_angle_gamma   90.00000000
_symmetry_Int_Tables_number   6
_chemical_formula_structural   Ir7Os9
_chemical_formula_sum   'Ir7 Os9'
_cell_volume   230.57400168
_cell_formula_units_Z   1
loop_
 _symmetry_equiv_pos_site_id
 _symmetry_equiv_pos_as_xyz
  1  'x, y, z'
  2  'x, -y, z'
loop_
 _atom_site_type_symbol
 _atom_site_label
 _atom_site_symmetry_multiplicity
 _atom_site_fract_x
 _atom_site_fract_y
 _atom_site_fract_z
 _atom_site_occupancy
  Os  Os0  1  0.16148310  0.00000000  0.23690545  1
  Ir  Ir1  1  0.16302506  0.50000000  0.40375274  1
  Os  Os2  1  0.16303445  0.00000000  0.73688900  1
  Os  Os3  1  0.16309764  0.50000000  0.90301188  1
  Ir  Ir4  1  0.41018385  0.00000000  0.48864251  1
  Os  Os5  1  0.41047369  0.00000000  0.98809719  1
  Os  Os6  1  0.41112169  0.50000000  0.15432595  1
  Os  Os7  1  0.41223616  0.50000000  0.65588213  1
  Os  Os8  1  0.65951433  0.50000000  0.90502985  1
  Ir  Ir9  1  0.66133372  0.00000000  0.73844440  1
  Ir  Ir10  1  0.66140798  0.00000000  0.23826971  1
  Os  Os11  1  0.66150611  0.50000000  0.40558051  1
  Ir  Ir12  1  0.91120553  0.50000000  0.65486272  1
  Ir  Ir13  1  0.91152592  0.50000000  0.15350111  1
  Os  Os14  1  0.91200973  0.00000000  0.48659201  1
  Ir  Ir15  1  0.91315053  0.00000000  0.98673449  1
