# generated using pymatgen
data_Ir7Os9
_symmetry_space_group_name_H-M   'P 1'
_cell_length_a   4.37532682
_cell_length_b   5.51592198
_cell_length_c   9.55392273
_cell_angle_alpha   89.99714870
_cell_angle_beta   90.00000000
_cell_angle_gamma   90.00000000
_symmetry_Int_Tables_number   1
_chemical_formula_structural   Ir7Os9
_chemical_formula_sum   'Ir7 Os9'
_cell_volume   230.57400168
_cell_formula_units_Z   1
loop_
 _symmetry_equiv_pos_site_id
 _symmetry_equiv_pos_as_xyz
  1  'x, y, z'
loop_
 _atom_site_type_symbol
 _atom_site_label
 _atom_site_symmetry_multiplicity
 _atom_site_fract_x
 _atom_site_fract_y
 _atom_site_fract_z
 _atom_site_occupancy
  Ir  Ir0  1  0.00000000  0.66133372  0.26155560  1
  Ir  Ir1  1  0.00000000  0.66140798  0.76173029  1
  Ir  Ir2  1  0.50000000  0.91152592  0.84649889  1
  Ir  Ir3  1  0.50000000  0.91120553  0.34513728  1
  Ir  Ir4  1  0.50000000  0.16302506  0.59624726  1
  Ir  Ir5  1  0.00000000  0.41018385  0.51135749  1
  Ir  Ir6  1  0.00000000  0.91315053  0.01326551  1
  Os  Os7  1  0.00000000  0.91200973  0.51340799  1
  Os  Os8  1  0.00000000  0.16303445  0.26311100  1
  Os  Os9  1  0.50000000  0.41223616  0.34411787  1
  Os  Os10  1  0.50000000  0.41112169  0.84567405  1
  Os  Os11  1  0.50000000  0.65951433  0.09497015  1
  Os  Os12  1  0.50000000  0.66150611  0.59441949  1
  Os  Os13  1  0.50000000  0.16309764  0.09698812  1
  Os  Os14  1  0.00000000  0.41047369  0.01190281  1
  Os  Os15  1  0.00000000  0.16148310  0.76309455  1
