# generated using pymatgen
data_Ir7Os5
_symmetry_space_group_name_H-M   'P 1'
_cell_length_a   4.77201129
_cell_length_b   4.38699823
_cell_length_c   8.28561643
_cell_angle_alpha   90.00000000
_cell_angle_beta   89.99437492
_cell_angle_gamma   90.00000000
_symmetry_Int_Tables_number   1
_chemical_formula_structural   Ir7Os5
_chemical_formula_sum   'Ir7 Os5'
_cell_volume   173.45776398
_cell_formula_units_Z   1
loop_
 _symmetry_equiv_pos_site_id
 _symmetry_equiv_pos_as_xyz
  1  'x, y, z'
loop_
 _atom_site_type_symbol
 _atom_site_label
 _atom_site_symmetry_multiplicity
 _atom_site_fract_x
 _atom_site_fract_y
 _atom_site_fract_z
 _atom_site_occupancy
  Ir  Ir0  1  0.01198262  0.00000000  0.79979743  1
  Ir  Ir1  1  0.67710612  0.50000000  0.79647713  1
  Ir  Ir2  1  0.50941947  0.00000000  0.63023006  1
  Ir  Ir3  1  0.51082023  0.00000000  0.96846627  1
  Ir  Ir4  1  0.18141846  0.50000000  0.29898986  1
  Ir  Ir5  1  0.68191606  0.50000000  0.13248614  1
  Ir  Ir6  1  0.01073136  0.00000000  0.46302251  1
  Os  Os7  1  0.51476092  0.00000000  0.29820201  1
  Os  Os8  1  0.17792447  0.50000000  0.96394969  1
  Os  Os9  1  0.67727716  0.50000000  0.46617601  1
  Os  Os10  1  0.01520786  0.00000000  0.13180186  1
  Os  Os11  1  0.17680951  0.50000000  0.63264632  1
