# generated using pymatgen
data_Ir7Os3
_symmetry_space_group_name_H-M   C2/m
_cell_length_a   13.94478779
_cell_length_b   3.86710969
_cell_length_c   5.47617238
_cell_angle_alpha   90.00000000
_cell_angle_beta   101.18980701
_cell_angle_gamma   90.00000000
_symmetry_Int_Tables_number   12
_chemical_formula_structural   Ir7Os3
_chemical_formula_sum   'Ir14 Os6'
_cell_volume   289.69430431
_cell_formula_units_Z   2
loop_
 _symmetry_equiv_pos_site_id
 _symmetry_equiv_pos_as_xyz
  1  'x, y, z'
  2  '-x, -y, -z'
  3  '-x, y, -z'
  4  'x, -y, z'
  5  'x+1/2, y+1/2, z'
  6  '-x+1/2, -y+1/2, -z'
  7  '-x+1/2, y+1/2, -z'
  8  'x+1/2, -y+1/2, z'
loop_
 _atom_site_type_symbol
 _atom_site_label
 _atom_site_symmetry_multiplicity
 _atom_site_fract_x
 _atom_site_fract_y
 _atom_site_fract_z
 _atom_site_occupancy
  Ir  Ir0  4  0.09818547  0.50000000  0.29453173  1
  Ir  Ir1  4  0.10073791  0.50000000  0.80404657  1
  Os  Os2  4  0.20072373  0.00000000  0.09751190  1
  Ir  Ir3  4  0.20291338  0.00000000  0.60367240  1
  Os  Os4  2  0.00000000  0.00000000  0.00000000  1
  Ir  Ir5  2  0.00000000  0.00000000  0.50000000  1
