# generated using pymatgen
data_Ir8Os7
_symmetry_space_group_name_H-M   'P 1'
_cell_length_a   3.86919119
_cell_length_b   6.12053280
_cell_length_c   9.86846811
_cell_angle_alpha   100.71899187
_cell_angle_beta   90.00000000
_cell_angle_gamma   108.42619827
_symmetry_Int_Tables_number   1
_chemical_formula_structural   Ir8Os7
_chemical_formula_sum   'Ir8 Os7'
_cell_volume   217.41640788
_cell_formula_units_Z   1
loop_
 _symmetry_equiv_pos_site_id
 _symmetry_equiv_pos_as_xyz
  1  'x, y, z'
loop_
 _atom_site_type_symbol
 _atom_site_label
 _atom_site_symmetry_multiplicity
 _atom_site_fract_x
 _atom_site_fract_y
 _atom_site_fract_z
 _atom_site_occupancy
  Ir  Ir0  1  0.28167634  0.56335268  0.15479694  1
  Ir  Ir1  1  0.15039770  0.30079540  0.35713939  1
  Ir  Ir2  1  0.88198390  0.76396780  0.75686203  1
  Ir  Ir3  1  0.68151433  0.36302867  0.55573301  1
  Ir  Ir4  1  0.61548704  0.23097408  0.15576006  1
  Ir  Ir5  1  0.47933480  0.95866960  0.35832835  1
  Ir  Ir6  1  0.08192540  0.16385080  0.95472544  1
  Ir  Ir7  1  0.94616756  0.89233513  0.15350258  1
  Os  Os8  1  0.81667528  0.63335057  0.36013834  1
  Os  Os9  1  0.54905580  0.09811159  0.75589828  1
  Os  Os10  1  0.21397396  0.42794792  0.75737798  1
  Os  Os11  1  0.01298437  0.02596875  0.55642813  1
  Os  Os12  1  0.34955347  0.69910695  0.55416435  1
  Os  Os13  1  0.41194885  0.82389769  0.95494841  1
  Os  Os14  1  0.74907996  0.49815991  0.95312210  1
