# generated using pymatgen
data_Ir8Os7
_symmetry_space_group_name_H-M   Cm
_cell_length_a   11.61348555
_cell_length_b   3.86919119
_cell_length_c   9.86846811
_cell_angle_alpha   90.00000000
_cell_angle_beta   101.30566700
_cell_angle_gamma   90.00000000
_symmetry_Int_Tables_number   8
_chemical_formula_structural   Ir8Os7
_chemical_formula_sum   'Ir16 Os14'
_cell_volume   434.83281576
_cell_formula_units_Z   2
loop_
 _symmetry_equiv_pos_site_id
 _symmetry_equiv_pos_as_xyz
  1  'x, y, z'
  2  'x, -y, z'
  3  'x+1/2, y+1/2, z'
  4  'x+1/2, -y+1/2, z'
loop_
 _atom_site_type_symbol
 _atom_site_label
 _atom_site_symmetry_multiplicity
 _atom_site_fract_x
 _atom_site_fract_y
 _atom_site_fract_z
 _atom_site_occupancy
  Os  Os0  2  0.01298437  0.00000000  0.55642813  1
  Os  Os1  2  0.04905580  0.50000000  0.75589828  1
  Ir  Ir2  2  0.08192540  0.00000000  0.95472544  1
  Ir  Ir3  2  0.11548704  0.50000000  0.15576006  1
  Ir  Ir4  2  0.15039770  0.00000000  0.35713939  1
  Ir  Ir5  2  0.18151433  0.50000000  0.55573301  1
  Os  Os6  2  0.21397396  0.00000000  0.75737798  1
  Os  Os7  2  0.24907996  0.50000000  0.95312210  1
  Ir  Ir8  2  0.28167634  0.00000000  0.15479694  1
  Os  Os9  2  0.31667528  0.50000000  0.36013834  1
  Os  Os10  2  0.34955347  0.00000000  0.55416435  1
  Ir  Ir11  2  0.38198390  0.50000000  0.75686203  1
  Os  Os12  2  0.41194885  0.00000000  0.95494841  1
  Ir  Ir13  2  0.44616756  0.50000000  0.15350258  1
  Ir  Ir14  2  0.47933480  0.00000000  0.35832835  1
