# generated using pymatgen
data_Ir9Os7
_symmetry_space_group_name_H-M   Amm2
_cell_length_a   8.86439066
_cell_length_b   5.49139311
_cell_length_c   9.49964773
_cell_angle_alpha   90.00000000
_cell_angle_beta   90.00000000
_cell_angle_gamma   90.00000000
_symmetry_Int_Tables_number   38
_chemical_formula_structural   Ir9Os7
_chemical_formula_sum   'Ir18 Os14'
_cell_volume   462.42246279
_cell_formula_units_Z   2
loop_
 _symmetry_equiv_pos_site_id
 _symmetry_equiv_pos_as_xyz
  1  'x, y, z'
  2  '-x, -y, z'
  3  '-x, y, z'
  4  'x, -y, z'
  5  'x, y+1/2, z+1/2'
  6  '-x, -y+1/2, z+1/2'
  7  '-x, y+1/2, z+1/2'
  8  'x, -y+1/2, z+1/2'
loop_
 _atom_site_type_symbol
 _atom_site_label
 _atom_site_symmetry_multiplicity
 _atom_site_fract_x
 _atom_site_fract_y
 _atom_site_fract_z
 _atom_site_occupancy
  Os  Os0  8  0.25138593  0.24859646  0.58578696  1
  Ir  Ir1  4  0.00000000  0.24961377  0.75221398  1
  Os  Os2  4  0.24950798  0.00000000  0.33539555  1
  Ir  Ir3  4  0.25150503  0.00000000  0.83465124  1
  Ir  Ir4  4  0.50000000  0.24950128  0.41859746  1
  Ir  Ir5  2  0.00000000  0.00000000  0.00235336  1
  Ir  Ir6  2  0.00000000  0.00000000  0.50237688  1
  Ir  Ir7  2  0.50000000  0.00000000  0.16880465  1
  Os  Os8  2  0.50000000  0.00000000  0.66829922  1
