# generated using pymatgen
data_Ir9Os7
_symmetry_space_group_name_H-M   'P 1'
_cell_length_a   5.48631719
_cell_length_b   5.48631719
_cell_length_c   8.86439066
_cell_angle_alpha   90.00000000
_cell_angle_beta   90.00000000
_cell_angle_gamma   119.93878011
_symmetry_Int_Tables_number   1
_chemical_formula_structural   Ir9Os7
_chemical_formula_sum   'Ir9 Os7'
_cell_volume   231.21123139
_cell_formula_units_Z   1
loop_
 _symmetry_equiv_pos_site_id
 _symmetry_equiv_pos_as_xyz
  1  'x, y, z'
loop_
 _atom_site_type_symbol
 _atom_site_label
 _atom_site_symmetry_multiplicity
 _atom_site_fract_x
 _atom_site_fract_y
 _atom_site_fract_z
 _atom_site_occupancy
  Ir  Ir0  1  0.83465124  0.16534876  0.74849497  1
  Ir  Ir1  1  0.00235336  0.99764664  0.00000000  1
  Ir  Ir2  1  0.83465124  0.16534876  0.25150503  1
  Ir  Ir3  1  0.66809874  0.83090382  0.50000000  1
  Ir  Ir4  1  0.00182775  0.49739979  0.00000000  1
  Ir  Ir5  1  0.50237688  0.49762312  0.00000000  1
  Ir  Ir6  1  0.16880465  0.83119535  0.50000000  1
  Ir  Ir7  1  0.16909618  0.33190126  0.50000000  1
  Ir  Ir8  1  0.50260021  0.99817225  0.00000000  1
  Os  Os9  1  0.83438343  0.66280950  0.74861407  1
  Os  Os10  1  0.66829922  0.33170078  0.50000000  1
  Os  Os11  1  0.33539555  0.66460445  0.75049202  1
  Os  Os12  1  0.33719050  0.16561657  0.25138593  1
  Os  Os13  1  0.33719050  0.16561657  0.74861407  1
  Os  Os14  1  0.83438343  0.66280950  0.25138593  1
  Os  Os15  1  0.33539555  0.66460445  0.24950798  1
