# generated using pymatgen
data_IrOs8W
_symmetry_space_group_name_H-M   'P 1'
_cell_length_a   4.79112117
_cell_length_b   5.17439006
_cell_length_c   7.33563936
_cell_angle_alpha   113.81114536
_cell_angle_beta   109.16007920
_cell_angle_gamma   62.36665633
_symmetry_Int_Tables_number   1
_chemical_formula_structural   IrOs8W
_chemical_formula_sum   'Ir1 Os8 W1'
_cell_volume   145.15481654
_cell_formula_units_Z   1
loop_
 _symmetry_equiv_pos_site_id
 _symmetry_equiv_pos_as_xyz
  1  'x, y, z'
loop_
 _atom_site_type_symbol
 _atom_site_label
 _atom_site_symmetry_multiplicity
 _atom_site_fract_x
 _atom_site_fract_y
 _atom_site_fract_z
 _atom_site_occupancy
  Ir  Ir0  1  0.45845375  0.76997596  0.20216541  1
  Os  Os1  1  0.85825550  0.76892656  0.00062009  1
  Os  Os2  1  0.72909661  0.26883390  0.90377671  1
  Os  Os3  1  0.12857716  0.26662283  0.70387971  1
  Os  Os4  1  0.66177526  0.76999077  0.60205252  1
  Os  Os5  1  0.05955326  0.77216545  0.40482800  1
  Os  Os6  1  0.32556130  0.26969703  0.10022281  1
  Os  Os7  1  0.92327609  0.27245971  0.30118784  1
  Os  Os8  1  0.25932992  0.77089675  0.80355183  1
  W  W9  1  0.52538028  0.27091688  0.50287117  1
