# generated using pymatgen
data_IrOs
_symmetry_space_group_name_H-M   Pm
_cell_length_a   4.76343280
_cell_length_b   2.74327640
_cell_length_c   6.82122401
_cell_angle_alpha   90.00000000
_cell_angle_beta   103.46871734
_cell_angle_gamma   90.00000000
_symmetry_Int_Tables_number   6
_chemical_formula_structural   IrOs
_chemical_formula_sum   'Ir3 Os3'
_cell_volume   86.68427008
_cell_formula_units_Z   3
loop_
 _symmetry_equiv_pos_site_id
 _symmetry_equiv_pos_as_xyz
  1  'x, y, z'
  2  'x, -y, z'
loop_
 _atom_site_type_symbol
 _atom_site_label
 _atom_site_symmetry_multiplicity
 _atom_site_fract_x
 _atom_site_fract_y
 _atom_site_fract_z
 _atom_site_occupancy
  Os  Os0  1  0.15475194  0.50000000  0.22936042  1
  Os  Os1  1  0.36924885  0.50000000  0.88889811  1
  Os  Os2  1  0.42857120  0.00000000  0.55887244  1
  Ir  Ir3  1  0.64283975  0.00000000  0.22104659  1
  Ir  Ir4  1  0.87321597  0.00000000  0.89416668  1
  Ir  Ir5  1  0.92692961  0.50000000  0.55979414  1
