# generated using pymatgen
data_IrOs5W
_symmetry_space_group_name_H-M   'P 1'
_cell_length_a   4.38930258
_cell_length_b   7.33201802
_cell_length_c   7.32795615
_cell_angle_alpha   119.93718349
_cell_angle_beta   90.00000000
_cell_angle_gamma   90.00000000
_symmetry_Int_Tables_number   1
_chemical_formula_structural   IrOs5W
_chemical_formula_sum   'Ir2 Os10 W2'
_cell_volume   204.36526806
_cell_formula_units_Z   2
loop_
 _symmetry_equiv_pos_site_id
 _symmetry_equiv_pos_as_xyz
  1  'x, y, z'
loop_
 _atom_site_type_symbol
 _atom_site_label
 _atom_site_symmetry_multiplicity
 _atom_site_fract_x
 _atom_site_fract_y
 _atom_site_fract_z
 _atom_site_occupancy
  Ir  Ir0  1  0.25000000  0.66373845  0.33346503  1
  Ir  Ir1  1  0.75000000  0.33626155  0.66653497  1
  Os  Os2  1  0.25000000  0.38016817  0.47532003  1
  Os  Os3  1  0.25000000  0.80689733  0.76018707  1
  Os  Os4  1  0.25000000  0.95657083  0.19032719  1
  Os  Os5  1  0.75000000  0.61983183  0.52467997  1
  Os  Os6  1  0.75000000  0.19310267  0.23981293  1
  Os  Os7  1  0.75000000  0.47347945  0.09244567  1
  Os  Os8  1  0.25000000  0.52652055  0.90755433  1
  Os  Os9  1  0.25000000  0.23896382  0.04911053  1
  Os  Os10  1  0.75000000  0.76103618  0.95088947  1
  Os  Os11  1  0.75000000  0.04342917  0.80967281  1
  W  W12  1  0.25000000  0.09786673  0.62301571  1
  W  W13  1  0.75000000  0.90213327  0.37698429  1
