# generated using pymatgen
data_IrOs4
_symmetry_space_group_name_H-M   C2/m
_cell_length_a   16.79027764
_cell_length_b   2.75822912
_cell_length_c   6.46097306
_cell_angle_alpha   90.00000000
_cell_angle_beta   106.29364038
_cell_angle_gamma   90.00000000
_symmetry_Int_Tables_number   12
_chemical_formula_structural   IrOs4
_chemical_formula_sum   'Ir4 Os16'
_cell_volume   287.19930193
_cell_formula_units_Z   4
loop_
 _symmetry_equiv_pos_site_id
 _symmetry_equiv_pos_as_xyz
  1  'x, y, z'
  2  '-x, -y, -z'
  3  '-x, y, -z'
  4  'x, -y, z'
  5  'x+1/2, y+1/2, z'
  6  '-x+1/2, -y+1/2, -z'
  7  '-x+1/2, y+1/2, -z'
  8  'x+1/2, -y+1/2, z'
loop_
 _atom_site_type_symbol
 _atom_site_label
 _atom_site_symmetry_multiplicity
 _atom_site_fract_x
 _atom_site_fract_y
 _atom_site_fract_z
 _atom_site_occupancy
  Os  Os0  4  0.01617215  0.50000000  0.71204920  1
  Ir  Ir1  4  0.08377159  0.00000000  0.08341424  1
  Os  Os2  4  0.11659087  0.00000000  0.51877332  1
  Os  Os3  4  0.18397296  0.50000000  0.88227000  1
  Os  Os4  4  0.21833343  0.50000000  0.31922320  1
