# generated using pymatgen
data_IrOs15
_symmetry_space_group_name_H-M   'P 1'
_cell_length_a   5.51296199
_cell_length_b   5.51296199
_cell_length_c   8.71298436
_cell_angle_alpha   90.00000000
_cell_angle_beta   90.00000000
_cell_angle_gamma   120.00000000
_symmetry_Int_Tables_number   1
_chemical_formula_structural   IrOs15
_chemical_formula_sum   'Ir1 Os15'
_cell_volume   229.33353310
_cell_formula_units_Z   1
loop_
 _symmetry_equiv_pos_site_id
 _symmetry_equiv_pos_as_xyz
  1  'x, y, z'
loop_
 _atom_site_type_symbol
 _atom_site_label
 _atom_site_symmetry_multiplicity
 _atom_site_fract_x
 _atom_site_fract_y
 _atom_site_fract_z
 _atom_site_occupancy
  Ir  Ir0  1  0.33333333  0.66666667  0.47455042  1
  Os  Os1  1  0.83379563  0.66759125  0.97435624  1
  Os  Os2  1  0.16653704  0.33307408  0.72557509  1
  Os  Os3  1  0.33333333  0.66666667  0.97450199  1
  Os  Os4  1  0.66666667  0.33333333  0.72417763  1
  Os  Os5  1  0.16653937  0.33307875  0.22332555  1
  Os  Os6  1  0.16653937  0.83346063  0.22332555  1
  Os  Os7  1  0.83398105  0.16601895  0.47442132  1
  Os  Os8  1  0.83379563  0.16620437  0.97435624  1
  Os  Os9  1  0.66692592  0.83346296  0.72557509  1
  Os  Os10  1  0.33240875  0.16620437  0.97435624  1
  Os  Os11  1  0.33203790  0.16601895  0.47442132  1
  Os  Os12  1  0.66692125  0.83346063  0.22332555  1
  Os  Os13  1  0.83398105  0.66796210  0.47442132  1
  Os  Os14  1  0.66666667  0.33333333  0.22438883  1
  Os  Os15  1  0.16653704  0.83346296  0.72557509  1
