# generated using pymatgen
data_IrOs14W
_symmetry_space_group_name_H-M   Amm2
_cell_length_a   8.75639657
_cell_length_b   5.52340264
_cell_length_c   9.56087717
_cell_angle_alpha   90.00000000
_cell_angle_beta   90.00000000
_cell_angle_gamma   90.00000000
_symmetry_Int_Tables_number   38
_chemical_formula_structural   IrOs14W
_chemical_formula_sum   'Ir2 Os28 W2'
_cell_volume   462.41281868
_cell_formula_units_Z   2
loop_
 _symmetry_equiv_pos_site_id
 _symmetry_equiv_pos_as_xyz
  1  'x, y, z'
  2  '-x, -y, z'
  3  '-x, y, z'
  4  'x, -y, z'
  5  'x, y+1/2, z+1/2'
  6  '-x, -y+1/2, z+1/2'
  7  '-x, y+1/2, z+1/2'
  8  'x, -y+1/2, z+1/2'
loop_
 _atom_site_type_symbol
 _atom_site_label
 _atom_site_symmetry_multiplicity
 _atom_site_fract_x
 _atom_site_fract_y
 _atom_site_fract_z
 _atom_site_occupancy
  Os  Os0  8  0.25010243  0.24899524  0.07982941  1
  Os  Os1  4  0.00000000  0.24615725  0.74586490  1
  Os  Os2  4  0.24830899  0.00000000  0.32815633  1
  Os  Os3  4  0.25181443  0.00000000  0.82886667  1
  Os  Os4  4  0.50000000  0.24687221  0.74609857  1
  Os  Os5  2  0.00000000  0.00000000  0.49663581  1
  Ir  Ir6  2  0.00000000  0.00000000  0.99406511  1
  Os  Os7  2  0.50000000  0.00000000  0.99438386  1
  W  W8  2  0.50000000  0.00000000  0.49659934  1
