# generated using pymatgen
data_IrOs4W
_symmetry_space_group_name_H-M   Amm2
_cell_length_a   4.38017453
_cell_length_b   8.33322212
_cell_length_c   4.80675120
_cell_angle_alpha   90.00000000
_cell_angle_beta   90.00000000
_cell_angle_gamma   90.00000000
_symmetry_Int_Tables_number   38
_chemical_formula_structural   IrOs4W
_chemical_formula_sum   'Ir2 Os8 W2'
_cell_volume   175.45106815
_cell_formula_units_Z   2
loop_
 _symmetry_equiv_pos_site_id
 _symmetry_equiv_pos_as_xyz
  1  'x, y, z'
  2  '-x, -y, z'
  3  '-x, y, z'
  4  'x, -y, z'
  5  'x, y+1/2, z+1/2'
  6  '-x, -y+1/2, z+1/2'
  7  '-x, y+1/2, z+1/2'
  8  'x, -y+1/2, z+1/2'
loop_
 _atom_site_type_symbol
 _atom_site_label
 _atom_site_symmetry_multiplicity
 _atom_site_fract_x
 _atom_site_fract_y
 _atom_site_fract_z
 _atom_site_occupancy
  Os  Os0  4  0.00000000  0.16715563  0.65152484  1
  Os  Os1  4  0.50000000  0.16846720  0.98363084  1
  Ir  Ir2  2  0.50000000  0.00000000  0.48922264  1
  W  W3  2  0.00000000  0.00000000  0.15039093  1
