# generated using pymatgen
data_IrOs7
_symmetry_space_group_name_H-M   Pmm2
_cell_length_a   2.75541408
_cell_length_b   4.35747856
_cell_length_c   9.56180904
_cell_angle_alpha   90.00000000
_cell_angle_beta   90.00000000
_cell_angle_gamma   90.00000000
_symmetry_Int_Tables_number   25
_chemical_formula_structural   IrOs7
_chemical_formula_sum   'Ir1 Os7'
_cell_volume   114.80536909
_cell_formula_units_Z   1
loop_
 _symmetry_equiv_pos_site_id
 _symmetry_equiv_pos_as_xyz
  1  'x, y, z'
  2  '-x, -y, z'
  3  '-x, y, z'
  4  'x, -y, z'
loop_
 _atom_site_type_symbol
 _atom_site_label
 _atom_site_symmetry_multiplicity
 _atom_site_fract_x
 _atom_site_fract_y
 _atom_site_fract_z
 _atom_site_occupancy
  Os  Os0  1  0.00000000  0.00000000  0.17968151  1
  Os  Os1  1  0.00000000  0.00000000  0.68074422  1
  Os  Os2  1  0.00000000  0.50000000  0.34531205  1
  Os  Os3  1  0.00000000  0.50000000  0.84736307  1
  Os  Os4  1  0.50000000  0.00000000  0.42952935  1
  Os  Os5  1  0.50000000  0.00000000  0.93009453  1
  Os  Os6  1  0.50000000  0.50000000  0.09660272  1
  Ir  Ir7  1  0.50000000  0.50000000  0.59724704  1
