# generated using pymatgen
data_IrOs5
_symmetry_space_group_name_H-M   'P 1'
_cell_length_a   2.75403718
_cell_length_b   4.76343543
_cell_length_c   6.76963916
_cell_angle_alpha   103.66173678
_cell_angle_beta   90.00000000
_cell_angle_gamma   90.00000000
_symmetry_Int_Tables_number   1
_chemical_formula_structural   IrOs5
_chemical_formula_sum   'Ir1 Os5'
_cell_volume   86.29605941
_cell_formula_units_Z   1
loop_
 _symmetry_equiv_pos_site_id
 _symmetry_equiv_pos_as_xyz
  1  'x, y, z'
loop_
 _atom_site_type_symbol
 _atom_site_label
 _atom_site_symmetry_multiplicity
 _atom_site_fract_x
 _atom_site_fract_y
 _atom_site_fract_z
 _atom_site_occupancy
  Ir  Ir0  1  0.00000000  0.68511159  0.21493630  1
  Os  Os1  1  0.50000000  0.18780623  0.21632651  1
  Os  Os2  1  0.50000000  0.63007800  0.54431828  1
  Os  Os3  1  0.00000000  0.12914279  0.54335424  1
  Os  Os4  1  0.50000000  0.40452758  0.87177048  1
  Os  Os5  1  0.00000000  0.90814485  0.87649952  1
