# generated using pymatgen
data_IrOs3Ru
_symmetry_space_group_name_H-M   Cm
_cell_length_a   13.90941204
_cell_length_b   3.85614542
_cell_length_c   5.44786600
_cell_angle_alpha   90.00000000
_cell_angle_beta   101.32215298
_cell_angle_gamma   90.00000000
_symmetry_Int_Tables_number   8
_chemical_formula_structural   IrOs3Ru
_chemical_formula_sum   'Ir4 Os12 Ru4'
_cell_volume   286.51897417
_cell_formula_units_Z   4
loop_
 _symmetry_equiv_pos_site_id
 _symmetry_equiv_pos_as_xyz
  1  'x, y, z'
  2  'x, -y, z'
  3  'x+1/2, y+1/2, z'
  4  'x+1/2, -y+1/2, z'
loop_
 _atom_site_type_symbol
 _atom_site_label
 _atom_site_symmetry_multiplicity
 _atom_site_fract_x
 _atom_site_fract_y
 _atom_site_fract_z
 _atom_site_occupancy
  Os  Os0  2  0.04792557  0.00000000  0.69310895  1
  Os  Os1  2  0.05176828  0.00000000  0.18753899  1
  Os  Os2  2  0.14716941  0.50000000  0.99150811  1
  Ru  Ru3  2  0.15019526  0.50000000  0.48716873  1
  Os  Os4  2  0.24872726  0.00000000  0.29039756  1
  Ir  Ir5  2  0.25043998  0.00000000  0.78989696  1
  Ru  Ru6  2  0.34829897  0.50000000  0.08952759  1
  Os  Os7  2  0.34934928  0.50000000  0.58944664  1
  Ir  Ir8  2  0.44819749  0.00000000  0.38983967  1
  Os  Os9  2  0.45106538  0.00000000  0.88876005  1
