# generated using pymatgen
data_IrOs6
_symmetry_space_group_name_H-M   'P 1'
_cell_length_a   4.77666211
_cell_length_b   6.46722936
_cell_length_c   7.03151317
_cell_angle_alpha   94.72742548
_cell_angle_beta   90.00000000
_cell_angle_gamma   111.67229331
_symmetry_Int_Tables_number   1
_chemical_formula_structural   IrOs6
_chemical_formula_sum   'Ir2 Os12'
_cell_volume   201.06578617
_cell_formula_units_Z   2
loop_
 _symmetry_equiv_pos_site_id
 _symmetry_equiv_pos_as_xyz
  1  'x, y, z'
loop_
 _atom_site_type_symbol
 _atom_site_label
 _atom_site_symmetry_multiplicity
 _atom_site_fract_x
 _atom_site_fract_y
 _atom_site_fract_z
 _atom_site_occupancy
  Ir  Ir0  1  0.12960100  0.57206886  0.92729066  1
  Ir  Ir1  1  0.55753213  0.42793114  0.07270934  1
  Os  Os2  1  0.60685231  0.85941655  0.14456939  1
  Os  Os3  1  0.46246282  0.57206480  0.42958675  1
  Os  Os4  1  0.84517428  0.00000000  0.50000000  1
  Os  Os5  1  0.41469244  0.14167431  0.35788729  1
  Os  Os6  1  0.27301813  0.85832569  0.64211271  1
  Os  Os7  1  0.03510027  0.71583221  0.28700948  1
  Os  Os8  1  0.74743577  0.14058345  0.85543061  1
  Os  Os9  1  0.17651123  0.00000000  0.00000000  1
  Os  Os10  1  0.70146006  0.71524871  0.78481003  1
  Os  Os11  1  0.98621135  0.28475129  0.21518997  1
  Os  Os12  1  0.31926806  0.28416779  0.71299052  1
  Os  Os13  1  0.89039802  0.42793520  0.57041325  1
