# generated using pymatgen
data_IrOs6
_symmetry_space_group_name_H-M   C2
_cell_length_a   12.02013816
_cell_length_b   4.77666211
_cell_length_c   7.03151317
_cell_angle_alpha   90.00000000
_cell_angle_beta   95.08793495
_cell_angle_gamma   90.00000000
_symmetry_Int_Tables_number   5
_chemical_formula_structural   IrOs6
_chemical_formula_sum   'Ir4 Os24'
_cell_volume   402.13157234
_cell_formula_units_Z   4
loop_
 _symmetry_equiv_pos_site_id
 _symmetry_equiv_pos_as_xyz
  1  'x, y, z'
  2  '-x, y, -z'
  3  'x+1/2, y+1/2, z'
  4  '-x+1/2, y+1/2, -z'
loop_
 _atom_site_type_symbol
 _atom_site_label
 _atom_site_symmetry_multiplicity
 _atom_site_fract_x
 _atom_site_fract_y
 _atom_site_fract_z
 _atom_site_occupancy
  Os  Os0  4  0.07029173  0.32285596  0.85543061  1
  Os  Os1  4  0.07083715  0.65614471  0.35788729  1
  Os  Os2  4  0.14208390  0.82281583  0.71299052  1
  Os  Os3  4  0.14237565  0.15616430  0.21518997  1
  Ir  Ir4  4  0.21396557  0.65643344  0.07270934  1
  Os  Os5  4  0.21396760  0.32356958  0.57041325  1
  Os  Os6  2  0.00000000  0.15482572  0.50000000  1
  Os  Os7  2  0.00000000  0.82348877  0.00000000  1
