# generated using pymatgen
data_IrOs8W
_symmetry_space_group_name_H-M   P1
_cell_length_a   4.79112117
_cell_length_b   5.17033103
_cell_length_c   7.06663273
_cell_angle_alpha   71.67605564
_cell_angle_beta   89.93775427
_cell_angle_gamma   62.45269797
_symmetry_Int_Tables_number   1
_chemical_formula_structural   IrOs8W
_chemical_formula_sum   'Ir1 Os8 W1'
_cell_volume   145.15481654
_cell_formula_units_Z   1
loop_
 _symmetry_equiv_pos_site_id
 _symmetry_equiv_pos_as_xyz
  1  'x, y, z'
loop_
 _atom_site_type_symbol
 _atom_site_label
 _atom_site_symmetry_multiplicity
 _atom_site_fract_x
 _atom_site_fract_y
 _atom_site_fract_z
 _atom_site_occupancy
  Ir  Ir0  1  0.02626430  0.43218945  0.79783459  1
  Os  Os1  1  0.09415380  0.63494280  0.09622329  1
  Os  Os2  1  0.22667484  0.03265508  0.19644817  1
  Os  Os3  1  0.42689071  0.63266255  0.59517200  1
  Os  Os4  1  0.49503552  0.83052578  0.89977719  1
  Os  Os5  1  0.62656196  0.23169353  0.99937991  1
  Os  Os6  1  0.69132028  0.43725688  0.29612029  1
  Os  Os7  1  0.82971351  0.83206175  0.39794748  1
  Os  Os8  1  0.89454797  0.02872813  0.69881216  1
  W  W9  1  0.29342599  0.23195429  0.49712883  1
