# generated using pymatgen
data_IrOs4
_symmetry_space_group_name_H-M   'P 1'
_cell_length_a   2.75822912
_cell_length_b   6.46097306
_cell_length_c   8.50766201
_cell_angle_alpha   106.07226002
_cell_angle_beta   99.32896268
_cell_angle_gamma   90.00000000
_symmetry_Int_Tables_number   1
_chemical_formula_structural   IrOs4
_chemical_formula_sum   'Ir2 Os8'
_cell_volume   143.59965097
_cell_formula_units_Z   2
loop_
 _symmetry_equiv_pos_site_id
 _symmetry_equiv_pos_as_xyz
  1  'x, y, z'
loop_
 _atom_site_type_symbol
 _atom_site_label
 _atom_site_symmetry_multiplicity
 _atom_site_fract_x
 _atom_site_fract_y
 _atom_site_fract_z
 _atom_site_occupancy
  Ir  Ir0  1  0.08377159  0.08341424  0.16754318  1
  Ir  Ir1  1  0.91622841  0.91658576  0.83245682  1
  Os  Os2  1  0.88340913  0.48122668  0.76681826  1
  Os  Os3  1  0.68397296  0.88227000  0.36794591  1
  Os  Os4  1  0.31602704  0.11773000  0.63205409  1
  Os  Os5  1  0.51617215  0.71204920  0.03234430  1
  Os  Os6  1  0.48382785  0.28795080  0.96765570  1
  Os  Os7  1  0.71833343  0.31922320  0.43666685  1
  Os  Os8  1  0.11659087  0.51877332  0.23318174  1
  Os  Os9  1  0.28166657  0.68077680  0.56333315  1
