# generated using pymatgen
data_IrOs14W
_symmetry_space_group_name_H-M   'P 1'
_cell_length_a   5.52340264
_cell_length_b   5.52083212
_cell_length_c   8.75639657
_cell_angle_alpha   90.00000000
_cell_angle_beta   90.00000000
_cell_angle_gamma   120.01540327
_symmetry_Int_Tables_number   1
_chemical_formula_structural   IrOs14W
_chemical_formula_sum   'Ir1 Os14 W1'
_cell_volume   231.20640934
_cell_formula_units_Z   1
loop_
 _symmetry_equiv_pos_site_id
 _symmetry_equiv_pos_as_xyz
  1  'x, y, z'
loop_
 _atom_site_type_symbol
 _atom_site_label
 _atom_site_symmetry_multiplicity
 _atom_site_fract_x
 _atom_site_fract_y
 _atom_site_fract_z
 _atom_site_occupancy
  Ir  Ir0  1  0.00593489  0.01186979  0.00000000  1
  Os  Os1  1  0.00797785  0.50827020  0.00000000  1
  Os  Os2  1  0.67184367  0.34368735  0.75169101  1
  Os  Os3  1  0.17113333  0.34226667  0.74818557  1
  Os  Os4  1  0.67117535  0.84034119  0.25010243  1
  Os  Os5  1  0.16916583  0.84034119  0.25010243  1
  Os  Os6  1  0.17113333  0.34226667  0.25181443  1
  Os  Os7  1  0.00702921  0.50780285  0.50000000  1
  Os  Os8  1  0.16916583  0.84034119  0.74989757  1
  Os  Os9  1  0.67117535  0.84034119  0.74989757  1
  Os  Os10  1  0.00561614  0.01123228  0.50000000  1
  Os  Os11  1  0.50077364  0.50780285  0.50000000  1
  Os  Os12  1  0.50336419  0.00672839  0.00000000  1
  Os  Os13  1  0.67184367  0.34368735  0.24830899  1
  Os  Os14  1  0.50029235  0.50827020  0.00000000  1
  W  W15  1  0.50340066  0.00680132  0.50000000  1
