# generated using pymatgen
data_IrOs2
_symmetry_space_group_name_H-M   Pm
_cell_length_a   4.77073323
_cell_length_b   2.75007753
_cell_length_c   6.78947270
_cell_angle_alpha   90.00000000
_cell_angle_beta   103.64046652
_cell_angle_gamma   90.00000000
_symmetry_Int_Tables_number   6
_chemical_formula_structural   IrOs2
_chemical_formula_sum   'Ir2 Os4'
_cell_volume   86.56466139
_cell_formula_units_Z   2
loop_
 _symmetry_equiv_pos_site_id
 _symmetry_equiv_pos_as_xyz
  1  'x, y, z'
  2  'x, -y, z'
loop_
 _atom_site_type_symbol
 _atom_site_label
 _atom_site_symmetry_multiplicity
 _atom_site_fract_x
 _atom_site_fract_y
 _atom_site_fract_z
 _atom_site_occupancy
  Os  Os0  1  0.03592233  0.00000000  0.08266876  1
  Ir  Ir1  1  0.25181036  0.00000000  0.73913661  1
  Os  Os2  1  0.47785223  0.00000000  0.41102152  1
  Ir  Ir3  1  0.53421592  0.50000000  0.08378880  1
  Os  Os4  1  0.75655775  0.50000000  0.74241370  1
  Os  Os5  1  0.97672205  0.50000000  0.40782680  1
