# generated using pymatgen
data_IrOs5W2
_symmetry_space_group_name_H-M   Amm2
_cell_length_a   4.40541025
_cell_length_b   5.56195678
_cell_length_c   9.62761567
_cell_angle_alpha   90.00000000
_cell_angle_beta   90.00000000
_cell_angle_gamma   90.00000000
_symmetry_Int_Tables_number   38
_chemical_formula_structural   IrOs5W2
_chemical_formula_sum   'Ir2 Os10 W4'
_cell_volume   235.90259194
_cell_formula_units_Z   2
loop_
 _symmetry_equiv_pos_site_id
 _symmetry_equiv_pos_as_xyz
  1  'x, y, z'
  2  '-x, -y, z'
  3  '-x, y, z'
  4  'x, -y, z'
  5  'x, y+1/2, z+1/2'
  6  '-x, -y+1/2, z+1/2'
  7  '-x, y+1/2, z+1/2'
  8  'x, -y+1/2, z+1/2'
loop_
 _atom_site_type_symbol
 _atom_site_label
 _atom_site_symmetry_multiplicity
 _atom_site_fract_x
 _atom_site_fract_y
 _atom_site_fract_z
 _atom_site_occupancy
  Os  Os0  4  0.00000000  0.24943560  0.37180663  1
  Os  Os1  4  0.50000000  0.24842335  0.53595567  1
  Os  Os2  2  0.00000000  0.00000000  0.12065677  1
  Ir  Ir3  2  0.50000000  0.00000000  0.78850652  1
  W  W4  2  0.00000000  0.00000000  0.61996457  1
  W  W5  2  0.50000000  0.00000000  0.28901238  1
