# generated using pymatgen
data_IrOs3Ru
_symmetry_space_group_name_H-M   'P 1'
_cell_length_a   3.85614542
_cell_length_b   5.44786600
_cell_length_c   7.21702156
_cell_angle_alpha   100.90548720
_cell_angle_beta   105.49511941
_cell_angle_gamma   90.00000000
_symmetry_Int_Tables_number   1
_chemical_formula_structural   IrOs3Ru
_chemical_formula_sum   'Ir2 Os6 Ru2'
_cell_volume   143.25948708
_cell_formula_units_Z   2
loop_
 _symmetry_equiv_pos_site_id
 _symmetry_equiv_pos_as_xyz
  1  'x, y, z'
loop_
 _atom_site_type_symbol
 _atom_site_label
 _atom_site_symmetry_multiplicity
 _atom_site_fract_x
 _atom_site_fract_y
 _atom_site_fract_z
 _atom_site_occupancy
  Ir  Ir0  1  0.55180251  0.61016033  0.10360502  1
  Ir  Ir1  1  0.74956002  0.21010304  0.49912003  1
  Os  Os2  1  0.15065072  0.41055336  0.30130143  1
  Os  Os3  1  0.54893462  0.11123995  0.09786925  1
  Os  Os4  1  0.94823172  0.81246101  0.89646344  1
  Os  Os5  1  0.75127274  0.70960244  0.50254549  1
  Os  Os6  1  0.95207443  0.30689105  0.90414885  1
  Os  Os7  1  0.35283059  0.00849189  0.70566118  1
  Ru  Ru8  1  0.34980474  0.51283127  0.69960947  1
  Ru  Ru9  1  0.15170103  0.91047241  0.30340205  1
