# generated using pymatgen
data_IrOs5W2
_symmetry_space_group_name_H-M   'P 1'
_cell_length_a   4.40541025
_cell_length_b   5.55936927
_cell_length_c   5.55936927
_cell_angle_alpha   119.96920489
_cell_angle_beta   90.00000000
_cell_angle_gamma   90.00000000
_symmetry_Int_Tables_number   1
_chemical_formula_structural   IrOs5W2
_chemical_formula_sum   'Ir1 Os5 W2'
_cell_volume   117.95129597
_cell_formula_units_Z   1
loop_
 _symmetry_equiv_pos_site_id
 _symmetry_equiv_pos_as_xyz
  1  'x, y, z'
loop_
 _atom_site_type_symbol
 _atom_site_label
 _atom_site_symmetry_multiplicity
 _atom_site_fract_x
 _atom_site_fract_y
 _atom_site_fract_z
 _atom_site_occupancy
  Ir  Ir0  1  0.50000000  0.78850652  0.21149348  1
  Os  Os1  1  0.00000000  0.12237103  0.37875778  1
  Os  Os2  1  0.00000000  0.12065677  0.87934323  1
  Os  Os3  1  0.50000000  0.28753231  0.21562098  1
  Os  Os4  1  0.50000000  0.78437902  0.71246769  1
  Os  Os5  1  0.00000000  0.62124222  0.87762897  1
  W  W6  1  0.00000000  0.61996457  0.38003543  1
  W  W7  1  0.50000000  0.28901238  0.71098762  1
