# generated using pymatgen
data_IrOs5W
_symmetry_space_group_name_H-M   P2_1/m
_cell_length_a   7.32795615
_cell_length_b   4.38930258
_cell_length_c   7.33201802
_cell_angle_alpha   90.00000000
_cell_angle_beta   119.93718349
_cell_angle_gamma   90.00000000
_symmetry_Int_Tables_number   11
_chemical_formula_structural   IrOs5W
_chemical_formula_sum   'Ir2 Os10 W2'
_cell_volume   204.36526806
_cell_formula_units_Z   2
loop_
 _symmetry_equiv_pos_site_id
 _symmetry_equiv_pos_as_xyz
  1  'x, y, z'
  2  '-x, -y, -z'
  3  '-x, y+1/2, -z'
  4  'x, -y+1/2, z'
loop_
 _atom_site_type_symbol
 _atom_site_label
 _atom_site_symmetry_multiplicity
 _atom_site_fract_x
 _atom_site_fract_y
 _atom_site_fract_z
 _atom_site_occupancy
  Os  Os0  2  0.04911053  0.75000000  0.23896382  1
  Os  Os1  2  0.09244567  0.25000000  0.47347945  1
  Os  Os2  2  0.19032719  0.75000000  0.95657083  1
  Os  Os3  2  0.23981293  0.25000000  0.19310267  1
  Ir  Ir4  2  0.33346503  0.75000000  0.66373845  1
  Os  Os5  2  0.47532003  0.75000000  0.38016817  1
  W  W6  2  0.37698429  0.25000000  0.90213327  1
