# generated using pymatgen
data_IrOs3W
_symmetry_space_group_name_H-M   'P 1'
_cell_length_a   4.81183178
_cell_length_b   4.38870918
_cell_length_c   7.34983487
_cell_angle_alpha   90.00000000
_cell_angle_beta   109.03222317
_cell_angle_gamma   90.00000000
_symmetry_Int_Tables_number   1
_chemical_formula_structural   IrOs3W
_chemical_formula_sum   'Ir2 Os6 W2'
_cell_volume   146.72722645
_cell_formula_units_Z   2
loop_
 _symmetry_equiv_pos_site_id
 _symmetry_equiv_pos_as_xyz
  1  'x, y, z'
loop_
 _atom_site_type_symbol
 _atom_site_label
 _atom_site_symmetry_multiplicity
 _atom_site_fract_x
 _atom_site_fract_y
 _atom_site_fract_z
 _atom_site_occupancy
  Ir  Ir0  1  0.69317809  0.50000000  0.56318259  1
  Ir  Ir1  1  0.56183703  0.00000000  0.96735280  1
  Os  Os2  1  0.16977301  0.00000000  0.16788915  1
  Os  Os3  1  0.30055249  0.50000000  0.76705710  1
  Os  Os4  1  0.75383879  0.00000000  0.36150164  1
  Os  Os5  1  0.35739012  0.00000000  0.56819385  1
  Os  Os6  1  0.89264609  0.50000000  0.96373605  1
  Os  Os7  1  0.49603213  0.50000000  0.16198086  1
  W  W8  1  0.09317850  0.50000000  0.36732784  1
  W  W9  1  0.96460015  0.00000000  0.76343538  1
