# generated using pymatgen
data_Os11W
_symmetry_space_group_name_H-M   'P 1'
_cell_length_a   4.36693829
_cell_length_b   4.78819245
_cell_length_c   8.30119829
_cell_angle_alpha   90.00000000
_cell_angle_beta   90.00000000
_cell_angle_gamma   90.00000000
_symmetry_Int_Tables_number   1
_chemical_formula_structural   Os11W
_chemical_formula_sum   'Os11 W1'
_cell_volume   173.57590570
_cell_formula_units_Z   1
loop_
 _symmetry_equiv_pos_site_id
 _symmetry_equiv_pos_as_xyz
  1  'x, y, z'
loop_
 _atom_site_type_symbol
 _atom_site_label
 _atom_site_symmetry_multiplicity
 _atom_site_fract_x
 _atom_site_fract_y
 _atom_site_fract_z
 _atom_site_occupancy
  Os  Os0  1  0.50000000  0.31600443  0.50000000  1
  Os  Os1  1  0.00000000  0.98394457  0.50000000  1
  Os  Os2  1  0.00000000  0.98277831  0.16876493  1
  Os  Os3  1  0.50000000  0.82343149  0.00000000  1
  Os  Os4  1  0.00000000  0.98277831  0.83123507  1
  Os  Os5  1  0.50000000  0.31623055  0.16836188  1
  Os  Os6  1  0.50000000  0.31623055  0.83163812  1
  Os  Os7  1  0.50000000  0.81758931  0.33339332  1
  Os  Os8  1  0.00000000  0.48688323  0.33483337  1
  Os  Os9  1  0.00000000  0.48688323  0.66516663  1
  Os  Os10  1  0.50000000  0.81758931  0.66660668  1
  W  W11  1  0.00000000  0.48571737  0.00000000  1
