# generated using pymatgen
data_Os11W
_symmetry_space_group_name_H-M   Pmm2
_cell_length_a   4.36693829
_cell_length_b   8.30119829
_cell_length_c   4.78819245
_cell_angle_alpha   90.00000000
_cell_angle_beta   90.00000000
_cell_angle_gamma   90.00000000
_symmetry_Int_Tables_number   25
_chemical_formula_structural   Os11W
_chemical_formula_sum   'Os11 W1'
_cell_volume   173.57590570
_cell_formula_units_Z   1
loop_
 _symmetry_equiv_pos_site_id
 _symmetry_equiv_pos_as_xyz
  1  'x, y, z'
  2  '-x, -y, z'
  3  '-x, y, z'
  4  'x, -y, z'
loop_
 _atom_site_type_symbol
 _atom_site_label
 _atom_site_symmetry_multiplicity
 _atom_site_fract_x
 _atom_site_fract_y
 _atom_site_fract_z
 _atom_site_occupancy
  Os  Os0  2  0.00000000  0.16876493  0.01722169  1
  Os  Os1  2  0.00000000  0.33483337  0.51311677  1
  Os  Os2  2  0.50000000  0.16836188  0.68376945  1
  Os  Os3  2  0.50000000  0.33339332  0.18241069  1
  Os  Os4  1  0.00000000  0.50000000  0.01605543  1
  Os  Os5  1  0.50000000  0.00000000  0.17656851  1
  Os  Os6  1  0.50000000  0.50000000  0.68399557  1
  W  W7  1  0.00000000  0.00000000  0.51428263  1
