# generated using pymatgen
data_Os13W3
_symmetry_space_group_name_H-M   'P 1'
_cell_length_a   5.52850201
_cell_length_b   5.52850201
_cell_length_c   9.00748624
_cell_angle_alpha   81.23314372
_cell_angle_beta   81.23314372
_cell_angle_gamma   60.08445212
_symmetry_Int_Tables_number   1
_chemical_formula_structural   Os13W3
_chemical_formula_sum   'Os13 W3'
_cell_volume   234.89840298
_cell_formula_units_Z   1
loop_
 _symmetry_equiv_pos_site_id
 _symmetry_equiv_pos_as_xyz
  1  'x, y, z'
loop_
 _atom_site_type_symbol
 _atom_site_label
 _atom_site_symmetry_multiplicity
 _atom_site_fract_x
 _atom_site_fract_y
 _atom_site_fract_z
 _atom_site_occupancy
  Os  Os0  1  0.63199685  0.13657451  0.53932641  1
  Os  Os1  1  0.63335412  0.63335412  0.53793590  1
  Os  Os2  1  0.84447215  0.34343362  0.28721082  1
  Os  Os3  1  0.13657451  0.63199685  0.53932641  1
  Os  Os4  1  0.92232251  0.42934301  0.79517665  1
  Os  Os5  1  0.42934301  0.92232251  0.79517665  1
  Os  Os6  1  0.71597875  0.21563060  0.04398215  1
  Os  Os7  1  0.34243755  0.34243755  0.28661575  1
  Os  Os8  1  0.71676426  0.71676426  0.04109200  1
  Os  Os9  1  0.92141299  0.92141299  0.79936701  1
  Os  Os10  1  0.34343362  0.84447215  0.28721082  1
  Os  Os11  1  0.21563060  0.71597875  0.04398215  1
  Os  Os12  1  0.21619157  0.21619157  0.04670027  1
  W  W13  1  0.84256982  0.84256982  0.29183226  1
  W  W14  1  0.42662843  0.42662843  0.78785893  1
  W  W15  1  0.13457015  0.13457015  0.53843627  1
