# generated using pymatgen
data_Os13W
_symmetry_space_group_name_H-M   'P 1'
_cell_length_a   4.78446294
_cell_length_b   5.16724408
_cell_length_c   9.38923739
_cell_angle_alpha   99.07429353
_cell_angle_beta   90.00000000
_cell_angle_gamma   117.57832842
_symmetry_Int_Tables_number   1
_chemical_formula_structural   Os13W
_chemical_formula_sum   'Os13 W1'
_cell_volume   202.46773259
_cell_formula_units_Z   1
loop_
 _symmetry_equiv_pos_site_id
 _symmetry_equiv_pos_as_xyz
  1  'x, y, z'
loop_
 _atom_site_type_symbol
 _atom_site_label
 _atom_site_symmetry_multiplicity
 _atom_site_fract_x
 _atom_site_fract_y
 _atom_site_fract_z
 _atom_site_occupancy
  Os  Os0  1  0.53277767  0.28573309  0.78727118  1
  Os  Os1  1  0.96226647  0.14772984  0.64458031  1
  Os  Os2  1  0.65038038  0.85737439  0.85703285  1
  Os  Os3  1  0.79300599  0.14262561  0.14296715  1
  Os  Os4  1  0.24704458  0.71426691  0.21272882  1
  Os  Os5  1  0.67601384  0.57255902  0.07143115  1
  Os  Os6  1  0.10345482  0.42744098  0.92856885  1
  Os  Os7  1  0.07774116  0.71287423  0.71525205  1
  Os  Os8  1  0.22086811  0.00000000  0.00000000  1
  Os  Os9  1  0.81453663  0.85227016  0.35541969  1
  Os  Os10  1  0.36486692  0.28712577  0.28474795  1
  Os  Os11  1  0.50951752  0.57198161  0.57169066  1
  Os  Os12  1  0.93753591  0.42801839  0.42830934  1
  W  W13  1  0.38801479  0.00000000  0.50000000  1
