# generated using pymatgen
data_Os13W3
_symmetry_space_group_name_H-M   Cm
_cell_length_a   9.57156935
_cell_length_b   5.53555760
_cell_length_c   9.00748624
_cell_angle_alpha   90.00000000
_cell_angle_beta   100.14079582
_cell_angle_gamma   90.00000000
_symmetry_Int_Tables_number   8
_chemical_formula_structural   Os13W3
_chemical_formula_sum   'Os26 W6'
_cell_volume   469.79680596
_cell_formula_units_Z   2
loop_
 _symmetry_equiv_pos_site_id
 _symmetry_equiv_pos_as_xyz
  1  'x, y, z'
  2  'x, -y, z'
  3  'x+1/2, y+1/2, z'
  4  'x+1/2, -y+1/2, z'
loop_
 _atom_site_type_symbol
 _atom_site_label
 _atom_site_symmetry_multiplicity
 _atom_site_fract_x
 _atom_site_fract_y
 _atom_site_fract_z
 _atom_site_occupancy
  Os  Os0  4  0.09395288  0.24948074  0.71278918  1
  Os  Os1  4  0.17583276  0.25351025  0.20482335  1
  Os  Os2  4  0.38428568  0.24771117  0.46067359  1
  Os  Os3  4  0.46580468  0.25017408  0.95601785  1
  Os  Os4  2  0.13335412  0.50000000  0.46206410  1
  Os  Os5  2  0.21619157  0.00000000  0.95329973  1
  Os  Os6  2  0.21676426  0.50000000  0.95890800  1
  Os  Os7  2  0.34243755  0.00000000  0.71338425  1
  Os  Os8  2  0.42141299  0.50000000  0.20063299  1
  W  W9  2  0.13457015  0.00000000  0.46156373  1
  W  W10  2  0.34256982  0.50000000  0.70816774  1
  W  W11  2  0.42662843  0.00000000  0.21214107  1
