# generated using pymatgen
data_Os13W
_symmetry_space_group_name_H-M   C2
_cell_length_a   9.16027072
_cell_length_b   4.78446294
_cell_length_c   9.38923739
_cell_angle_alpha   90.00000000
_cell_angle_beta   100.24932063
_cell_angle_gamma   90.00000000
_symmetry_Int_Tables_number   5
_chemical_formula_structural   Os13W
_chemical_formula_sum   'Os26 W2'
_cell_volume   404.93546519
_cell_formula_units_Z   2
loop_
 _symmetry_equiv_pos_site_id
 _symmetry_equiv_pos_as_xyz
  1  'x, y, z'
  2  '-x, y, -z'
  3  'x+1/2, y+1/2, z'
  4  '-x+1/2, y+1/2, -z'
loop_
 _atom_site_type_symbol
 _atom_site_label
 _atom_site_symmetry_multiplicity
 _atom_site_fract_x
 _atom_site_fract_y
 _atom_site_fract_z
 _atom_site_occupancy
  Os  Os0  4  0.07131280  0.27830681  0.14296715  1
  Os  Os1  4  0.07386492  0.11159845  0.64458031  1
  Os  Os2  4  0.14286655  0.61008887  0.78727118  1
  Os  Os3  4  0.14356288  0.77869596  0.28474795  1
  Os  Os4  4  0.21372049  0.11026567  0.92856885  1
  Os  Os5  4  0.21400920  0.27647328  0.42830934  1
  Os  Os6  2  0.00000000  0.77913189  0.00000000  1
  W  W7  2  0.00000000  0.61198521  0.50000000  1
