# generated using pymatgen
data_Os13Ru3
_symmetry_space_group_name_H-M   'P 1'
_cell_length_a   5.50578544
_cell_length_b   5.50578544
_cell_length_c   8.68802909
_cell_angle_alpha   90.00000000
_cell_angle_beta   90.00000000
_cell_angle_gamma   120.00000000
_symmetry_Int_Tables_number   1
_chemical_formula_structural   Os13Ru3
_chemical_formula_sum   'Os13 Ru3'
_cell_volume   228.08171219
_cell_formula_units_Z   1
loop_
 _symmetry_equiv_pos_site_id
 _symmetry_equiv_pos_as_xyz
  1  'x, y, z'
loop_
 _atom_site_type_symbol
 _atom_site_label
 _atom_site_symmetry_multiplicity
 _atom_site_fract_x
 _atom_site_fract_y
 _atom_site_fract_z
 _atom_site_occupancy
  Os  Os0  1  0.16698249  0.83301751  0.50000000  1
  Os  Os1  1  0.33272960  0.16636480  0.25024589  1
  Os  Os2  1  0.33272960  0.16636480  0.74975411  1
  Os  Os3  1  0.83363520  0.16636480  0.25024589  1
  Os  Os4  1  0.83363520  0.16636480  0.74975411  1
  Os  Os5  1  0.83363520  0.66727040  0.25024589  1
  Os  Os6  1  0.16698249  0.33396499  0.50000000  1
  Os  Os7  1  0.66666084  0.83333042  0.00000000  1
  Os  Os8  1  0.16666958  0.33333916  0.00000000  1
  Os  Os9  1  0.83363520  0.66727040  0.74975411  1
  Os  Os10  1  0.66666667  0.33333333  0.50000000  1
  Os  Os11  1  0.16666958  0.83333042  0.00000000  1
  Os  Os12  1  0.66603501  0.83301751  0.50000000  1
  Ru  Ru13  1  0.33333333  0.66666667  0.75059494  1
  Ru  Ru14  1  0.33333333  0.66666667  0.24940506  1
  Ru  Ru15  1  0.66666667  0.33333333  0.00000000  1
