# generated using pymatgen
data_Os15Ru
_symmetry_space_group_name_H-M   P-6m2
_cell_length_a   5.51602194
_cell_length_b   5.51602194
_cell_length_c   8.69507097
_cell_angle_alpha   90.00000000
_cell_angle_beta   90.00000000
_cell_angle_gamma   120.00000000
_symmetry_Int_Tables_number   187
_chemical_formula_structural   Os15Ru
_chemical_formula_sum   'Os15 Ru1'
_cell_volume   229.11616549
_cell_formula_units_Z   1
loop_
 _symmetry_equiv_pos_site_id
 _symmetry_equiv_pos_as_xyz
  1  'x, y, z'
  2  '-x+y, -x, -z'
  3  '-y, x-y, z'
  4  'x, y, -z'
  5  '-x+y, -x, z'
  6  '-y, x-y, -z'
  7  '-y, -x, -z'
  8  'x, x-y, z'
  9  '-x+y, y, -z'
  10  '-y, -x, z'
  11  'x, x-y, -z'
  12  '-x+y, y, z'
loop_
 _atom_site_type_symbol
 _atom_site_label
 _atom_site_symmetry_multiplicity
 _atom_site_fract_x
 _atom_site_fract_y
 _atom_site_fract_z
 _atom_site_occupancy
  Os  Os0  6  0.33368370  0.16684185  0.24987437  1
  Os  Os1  3  0.16614490  0.33228981  0.00000000  1
  Os  Os2  3  0.16629774  0.33259548  0.50000000  1
  Os  Os3  2  0.33333333  0.66666667  0.24945183  1
  Ru  Ru4  1  0.66666667  0.33333333  0.00000000  1
  Os  Os5  1  0.66666667  0.33333333  0.50000000  1
