# generated using pymatgen
data_Os3W
_symmetry_space_group_name_H-M   'P 1'
_cell_length_a   5.54748464
_cell_length_b   5.54748464
_cell_length_c   8.87554372
_cell_angle_alpha   90.00000000
_cell_angle_beta   90.00000000
_cell_angle_gamma   120.00000000
_symmetry_Int_Tables_number   1
_chemical_formula_structural   Os3W
_chemical_formula_sum   'Os12 W4'
_cell_volume   236.54720267
_cell_formula_units_Z   4
loop_
 _symmetry_equiv_pos_site_id
 _symmetry_equiv_pos_as_xyz
  1  'x, y, z'
loop_
 _atom_site_type_symbol
 _atom_site_label
 _atom_site_symmetry_multiplicity
 _atom_site_fract_x
 _atom_site_fract_y
 _atom_site_fract_z
 _atom_site_occupancy
  Os  Os0  1  0.00000000  0.50000000  0.00000000  1
  Os  Os1  1  0.16635063  0.83364937  0.25000000  1
  Os  Os2  1  0.50000000  0.00000000  0.50000000  1
  Os  Os3  1  0.50000000  0.50000000  0.50000000  1
  Os  Os4  1  0.83364937  0.66729875  0.75000000  1
  Os  Os5  1  0.83364937  0.16635063  0.75000000  1
  Os  Os6  1  0.00000000  0.50000000  0.50000000  1
  Os  Os7  1  0.16635063  0.33270125  0.25000000  1
  Os  Os8  1  0.66729875  0.83364937  0.25000000  1
  Os  Os9  1  0.50000000  0.50000000  0.00000000  1
  Os  Os10  1  0.33270125  0.16635063  0.75000000  1
  Os  Os11  1  0.50000000  0.00000000  0.00000000  1
  W  W12  1  0.00000000  0.00000000  0.50000000  1
  W  W13  1  0.00000000  0.00000000  0.00000000  1
  W  W14  1  0.33333333  0.66666667  0.75000000  1
  W  W15  1  0.66666667  0.33333333  0.25000000  1
