# generated using pymatgen
data_Os4W
_symmetry_space_group_name_H-M   'P 1'
_cell_length_a   4.80183607
_cell_length_b   5.20522748
_cell_length_c   7.35258002
_cell_angle_alpha   66.24399173
_cell_angle_beta   109.06620751
_cell_angle_gamma   117.43508967
_symmetry_Int_Tables_number   1
_chemical_formula_structural   Os4W
_chemical_formula_sum   'Os8 W2'
_cell_volume   147.01865762
_cell_formula_units_Z   2
loop_
 _symmetry_equiv_pos_site_id
 _symmetry_equiv_pos_as_xyz
  1  'x, y, z'
loop_
 _atom_site_type_symbol
 _atom_site_label
 _atom_site_symmetry_multiplicity
 _atom_site_fract_x
 _atom_site_fract_y
 _atom_site_fract_z
 _atom_site_occupancy
  Os  Os0  1  0.96945942  0.25317161  0.35069912  1
  Os  Os1  1  0.23486699  0.75220240  0.05082489  1
  Os  Os2  1  0.83312048  0.74875175  0.25106662  1
  Os  Os3  1  0.76513301  0.24779760  0.94917511  1
  Os  Os4  1  0.43347483  0.74768089  0.44869886  1
  Os  Os5  1  0.03054058  0.74682839  0.64930088  1
  Os  Os6  1  0.16687952  0.25124825  0.74893338  1
  Os  Os7  1  0.56652517  0.25231911  0.55130114  1
  W  W8  1  0.36111919  0.23892213  0.15303799  1
  W  W9  1  0.63888081  0.76107787  0.84696201  1
