# generated using pymatgen
data_Os4W
_symmetry_space_group_name_H-M   P-1
_cell_length_a   4.80183607
_cell_length_b   5.20522748
_cell_length_c   7.09364196
_cell_angle_alpha   108.43569773
_cell_angle_beta   90.02845779
_cell_angle_gamma   117.43508967
_symmetry_Int_Tables_number   2
_chemical_formula_structural   Os4W
_chemical_formula_sum   'Os8 W2'
_cell_volume   147.01865762
_cell_formula_units_Z   2
loop_
 _symmetry_equiv_pos_site_id
 _symmetry_equiv_pos_as_xyz
  1  'x, y, z'
  2  '-x, -y, -z'
loop_
 _atom_site_type_symbol
 _atom_site_label
 _atom_site_symmetry_multiplicity
 _atom_site_fract_x
 _atom_site_fract_y
 _atom_site_fract_z
 _atom_site_occupancy
  Os  Os0  2  0.03054058  0.39612927  0.64930088  1
  Os  Os1  2  0.16687952  0.00018163  0.74893338  1
  Os  Os2  2  0.23486699  0.80302729  0.05082489  1
  Os  Os3  2  0.43347483  0.19637975  0.44869886  1
  W  W4  2  0.36111919  0.39196013  0.15303799  1
