# generated using pymatgen
data_Os7RuW2
_symmetry_space_group_name_H-M   'P 1'
_cell_length_a   4.79948920
_cell_length_b   5.19875629
_cell_length_c   7.33868999
_cell_angle_alpha   84.21963045
_cell_angle_beta   70.92464669
_cell_angle_gamma   117.48162297
_symmetry_Int_Tables_number   1
_chemical_formula_structural   Os7RuW2
_chemical_formula_sum   'Os7 Ru1 W2'
_cell_volume   146.45667373
_cell_formula_units_Z   1
loop_
 _symmetry_equiv_pos_site_id
 _symmetry_equiv_pos_as_xyz
  1  'x, y, z'
loop_
 _atom_site_type_symbol
 _atom_site_label
 _atom_site_symmetry_multiplicity
 _atom_site_fract_x
 _atom_site_fract_y
 _atom_site_fract_z
 _atom_site_occupancy
  Os  Os0  1  0.77429179  0.62272132  0.02275170  1
  Os  Os1  1  0.57421945  0.61729317  0.42115439  1
  Os  Os2  1  0.17955572  0.62764967  0.21820633  1
  Os  Os3  1  0.38131574  0.63095712  0.81949431  1
  Os  Os4  1  0.55027402  0.13300439  0.31943526  1
  Os  Os5  1  0.74112045  0.11794830  0.92049297  1
  Os  Os6  1  0.34811884  0.12575824  0.71800190  1
  Ru  Ru7  1  0.94373875  0.12278402  0.52242144  1
  W  W8  1  0.97722428  0.62518710  0.62002798  1
  W  W9  1  0.14502505  0.12427247  0.12128475  1
