# generated using pymatgen
data_Os7RuW2
_symmetry_space_group_name_H-M   P1
_cell_length_a   4.79948920
_cell_length_b   5.19940735
_cell_length_c   7.08401920
_cell_angle_alpha   71.51113867
_cell_angle_beta   89.98315728
_cell_angle_gamma   62.50458753
_symmetry_Int_Tables_number   1
_chemical_formula_structural   Os7RuW2
_chemical_formula_sum   'Os7 Ru1 W2'
_cell_volume   146.45667373
_cell_formula_units_Z   1
loop_
 _symmetry_equiv_pos_site_id
 _symmetry_equiv_pos_as_xyz
  1  'x, y, z'
loop_
 _atom_site_type_symbol
 _atom_site_label
 _atom_site_symmetry_multiplicity
 _atom_site_fract_x
 _atom_site_fract_y
 _atom_site_fract_z
 _atom_site_occupancy
  Os  Os0  1  0.04307371  0.96155244  0.42115439  1
  Ru  Ru1  1  0.17904527  0.35479454  0.52242144  1
  Os  Os2  1  0.24964139  0.54954856  0.81949431  1
  Os  Os3  1  0.37682785  0.96155873  0.92049297  1
  Os  Os4  1  0.44809395  0.15414400  0.21820633  1
  Os  Os5  1  0.58273037  0.54756035  0.31943526  1
  Os  Os6  1  0.77763940  0.15623986  0.71800190  1
  Os  Os7  1  0.84842953  0.35452698  0.02275170  1
  W  W8  1  0.64796283  0.75478491  0.62002798  1
  W  W9  1  0.97924741  0.75444279  0.12128475  1
