# generated using pymatgen
data_Os7W
_symmetry_space_group_name_H-M   'P 1'
_cell_length_a   4.77728087
_cell_length_b   5.52742742
_cell_length_c   8.83624769
_cell_angle_alpha   90.00000000
_cell_angle_beta   90.00000000
_cell_angle_gamma   90.00000000
_symmetry_Int_Tables_number   1
_chemical_formula_structural   Os7W
_chemical_formula_sum   'Os14 W2'
_cell_volume   233.33060436
_cell_formula_units_Z   2
loop_
 _symmetry_equiv_pos_site_id
 _symmetry_equiv_pos_as_xyz
  1  'x, y, z'
loop_
 _atom_site_type_symbol
 _atom_site_label
 _atom_site_symmetry_multiplicity
 _atom_site_fract_x
 _atom_site_fract_y
 _atom_site_fract_z
 _atom_site_occupancy
  Os  Os0  1  0.00000000  0.75000000  0.75000000  1
  Os  Os1  1  0.33521622  0.25257795  0.50000000  1
  Os  Os2  1  0.66478378  0.75257795  0.00000000  1
  Os  Os3  1  0.66478378  0.24742205  0.00000000  1
  Os  Os4  1  0.49604559  0.00000000  0.75126529  1
  Os  Os5  1  0.83021493  0.50000000  0.50000000  1
  Os  Os6  1  0.00000000  0.25000000  0.25000000  1
  Os  Os7  1  0.00000000  0.75000000  0.25000000  1
  Os  Os8  1  0.50395441  0.50000000  0.74873471  1
  Os  Os9  1  0.00000000  0.25000000  0.75000000  1
  Os  Os10  1  0.49604559  0.00000000  0.24873471  1
  Os  Os11  1  0.16978507  0.00000000  0.00000000  1
  Os  Os12  1  0.50395441  0.50000000  0.25126529  1
  Os  Os13  1  0.33521622  0.74742205  0.50000000  1
  W  W14  1  0.83470866  0.00000000  0.50000000  1
  W  W15  1  0.16529134  0.50000000  0.00000000  1
