# generated using pymatgen
data_Os7W
_symmetry_space_group_name_H-M   Pmmn
_cell_length_a   5.52742742
_cell_length_b   8.83624769
_cell_length_c   4.77728087
_cell_angle_alpha   90.00000000
_cell_angle_beta   90.00000000
_cell_angle_gamma   90.00000000
_symmetry_Int_Tables_number   59
_chemical_formula_structural   Os7W
_chemical_formula_sum   'Os14 W2'
_cell_volume   233.33060436
_cell_formula_units_Z   2
loop_
 _symmetry_equiv_pos_site_id
 _symmetry_equiv_pos_as_xyz
  1  'x, y, z'
  2  '-x, -y, z'
  3  'x+1/2, -y+1/2, -z'
  4  '-x+1/2, y+1/2, -z'
  5  '-x+1/2, -y+1/2, -z'
  6  'x+1/2, y+1/2, -z'
  7  '-x, y, z'
  8  'x, -y, z'
loop_
 _atom_site_type_symbol
 _atom_site_label
 _atom_site_symmetry_multiplicity
 _atom_site_fract_x
 _atom_site_fract_y
 _atom_site_fract_z
 _atom_site_occupancy
  Os  Os0  4  0.00000000  0.24873471  0.49604559  1
  Os  Os1  4  0.24742205  0.00000000  0.66478378  1
  Os  Os2  4  0.25000000  0.25000000  0.00000000  1
  Os  Os3  2  0.00000000  0.00000000  0.16978507  1
  W  W4  2  0.00000000  0.50000000  0.83470866  1
