# generated using pymatgen
data_Os9W
_symmetry_space_group_name_H-M   'P 1'
_cell_length_a   4.78690303
_cell_length_b   5.17574616
_cell_length_c   7.32983390
_cell_angle_alpha   66.23726408
_cell_angle_beta   109.05863321
_cell_angle_gamma   117.54441222
_symmetry_Int_Tables_number   1
_chemical_formula_structural   Os9W
_chemical_formula_sum   'Os9 W1'
_cell_volume   145.15150084
_cell_formula_units_Z   1
loop_
 _symmetry_equiv_pos_site_id
 _symmetry_equiv_pos_as_xyz
  1  'x, y, z'
loop_
 _atom_site_type_symbol
 _atom_site_label
 _atom_site_symmetry_multiplicity
 _atom_site_fract_x
 _atom_site_fract_y
 _atom_site_fract_z
 _atom_site_occupancy
  Os  Os0  1  0.93664831  0.50040581  0.09967539  1
  Os  Os1  1  0.26909100  0.00045689  0.59806902  1
  Os  Os2  1  0.07448723  0.00363756  0.20135127  1
  Os  Os3  1  0.13803834  0.50000000  0.50000000  1
  Os  Os4  1  0.53817946  0.49803322  0.30073745  1
  Os  Os5  1  0.67056508  0.99954311  0.40193098  1
  Os  Os6  1  0.73940879  0.50196678  0.69926255  1
  Os  Os7  1  0.86949840  0.99636244  0.79864873  1
  Os  Os8  1  0.33656711  0.49959419  0.90032461  1
  W  W9  1  0.47186869  0.00000000  0.00000000  1
