# generated using pymatgen
data_Os9W
_symmetry_space_group_name_H-M   C2
_cell_length_a   9.17817807
_cell_length_b   4.78690303
_cell_length_c   7.06690064
_cell_angle_alpha   90.00000000
_cell_angle_beta   110.77191743
_cell_angle_gamma   90.00000000
_symmetry_Int_Tables_number   5
_chemical_formula_structural   Os9W
_chemical_formula_sum   'Os18 W2'
_cell_volume   290.30300167
_cell_formula_units_Z   2
loop_
 _symmetry_equiv_pos_site_id
 _symmetry_equiv_pos_as_xyz
  1  'x, y, z'
  2  '-x, y, -z'
  3  'x+1/2, y+1/2, z'
  4  '-x+1/2, y+1/2, -z'
loop_
 _atom_site_type_symbol
 _atom_site_label
 _atom_site_symmetry_multiplicity
 _atom_site_fract_x
 _atom_site_fract_y
 _atom_site_fract_z
 _atom_site_occupancy
  Os  Os0  4  0.10061466  0.36120588  0.69926255  1
  Os  Os1  4  0.10249441  0.02800718  0.20135127  1
  Os  Os2  4  0.19995940  0.86339229  0.90032461  1
  Os  Os3  4  0.20073704  0.53017196  0.40193098  1
  Os  Os4  2  0.00000000  0.86196166  0.50000000  1
  W  W5  2  0.00000000  0.52813131  0.00000000  1
