# generated using pymatgen
data_Re(IrOs)2
_symmetry_space_group_name_H-M   'P 1'
_cell_length_a   4.78782079
_cell_length_b   4.37896747
_cell_length_c   7.32791407
_cell_angle_alpha   90.00000000
_cell_angle_beta   108.97892117
_cell_angle_gamma   90.00000000
_symmetry_Int_Tables_number   1
_chemical_formula_structural   Re(IrOs)2
_chemical_formula_sum   'Re2 Ir4 Os4'
_cell_volume   145.28307385
_cell_formula_units_Z   2
loop_
 _symmetry_equiv_pos_site_id
 _symmetry_equiv_pos_as_xyz
  1  'x, y, z'
loop_
 _atom_site_type_symbol
 _atom_site_label
 _atom_site_symmetry_multiplicity
 _atom_site_fract_x
 _atom_site_fract_y
 _atom_site_fract_z
 _atom_site_occupancy
  Re  Re0  1  0.34365279  0.50000000  0.74197943  1
  Re  Re1  1  0.07914583  0.00000000  0.53890140  1
  Ir  Ir2  1  0.88034850  0.00000000  0.13800377  1
  Ir  Ir3  1  0.54592868  0.50000000  0.14020978  1
  Ir  Ir4  1  0.68111776  0.00000000  0.73921023  1
  Ir  Ir5  1  0.15167470  0.50000000  0.34210835  1
  Os  Os6  1  0.48444160  0.00000000  0.34422226  1
  Os  Os7  1  0.27629851  0.00000000  0.94158023  1
  Os  Os8  1  0.94391091  0.50000000  0.93693042  1
  Os  Os9  1  0.74452559  0.50000000  0.54179079  1
