# generated using pymatgen
data_Re(IrOs2)5
_symmetry_space_group_name_H-M   P1
_cell_length_a   4.78943796
_cell_length_b   5.52534476
_cell_length_c   8.72796078
_cell_angle_alpha   90.01875414
_cell_angle_beta   90.02870102
_cell_angle_gamma   90.00497722
_symmetry_Int_Tables_number   1
_chemical_formula_structural   Re(IrOs2)5
_chemical_formula_sum   'Re1 Ir5 Os10'
_cell_volume   230.97056724
_cell_formula_units_Z   1
loop_
 _symmetry_equiv_pos_site_id
 _symmetry_equiv_pos_as_xyz
  1  'x, y, z'
loop_
 _atom_site_type_symbol
 _atom_site_label
 _atom_site_symmetry_multiplicity
 _atom_site_fract_x
 _atom_site_fract_y
 _atom_site_fract_z
 _atom_site_occupancy
  Re  Re0  1  0.69065430  0.63260463  0.40235837  1
  Ir  Ir1  1  0.02489281  0.13583312  0.65322305  1
  Ir  Ir2  1  0.02503491  0.13395453  0.15393271  1
  Os  Os3  1  0.02624515  0.63122013  0.65189874  1
  Os  Os4  1  0.02670891  0.63247079  0.15523236  1
  Ir  Ir5  1  0.19014224  0.88290326  0.90511707  1
  Os  Os6  1  0.19057237  0.38429434  0.90341396  1
  Os  Os7  1  0.19197779  0.38460317  0.40307054  1
  Os  Os8  1  0.19228290  0.88262193  0.40241481  1
  Os  Os9  1  0.52341022  0.38527227  0.15257882  1
  Os  Os10  1  0.52392252  0.88234301  0.15370165  1
  Os  Os11  1  0.52409748  0.38493652  0.65454480  1
  Ir  Ir12  1  0.52540284  0.88122334  0.65286235  1
  Ir  Ir13  1  0.69046485  0.13373053  0.40171127  1
  Os  Os14  1  0.69245071  0.13469802  0.90491565  1
  Os  Os15  1  0.69250286  0.63220434  0.90520315  1
