# generated using pymatgen
data_Re(Os4W)3
_symmetry_space_group_name_H-M   P-6m2
_cell_length_a   5.54037454
_cell_length_b   5.54037454
_cell_length_c   8.85787792
_cell_angle_alpha   90.00000000
_cell_angle_beta   90.00000000
_cell_angle_gamma   120.00000000
_symmetry_Int_Tables_number   187
_chemical_formula_structural   Re(Os4W)3
_chemical_formula_sum   'Re1 Os12 W3'
_cell_volume   235.47161989
_cell_formula_units_Z   1
loop_
 _symmetry_equiv_pos_site_id
 _symmetry_equiv_pos_as_xyz
  1  'x, y, z'
  2  '-x+y, -x, -z'
  3  '-y, x-y, z'
  4  'x, y, -z'
  5  '-x+y, -x, z'
  6  '-y, x-y, -z'
  7  '-y, -x, -z'
  8  'x, x-y, z'
  9  '-x+y, y, -z'
  10  '-y, -x, z'
  11  'x, x-y, -z'
  12  '-x+y, y, z'
loop_
 _atom_site_type_symbol
 _atom_site_label
 _atom_site_symmetry_multiplicity
 _atom_site_fract_x
 _atom_site_fract_y
 _atom_site_fract_z
 _atom_site_occupancy
  Re  Re0  1  0.00000000  0.00000000  0.00000000  1
  Os  Os1  6  0.33189837  0.16594919  0.24756837  1
  Os  Os2  3  0.00150510  0.50075255  0.00000000  1
  Os  Os3  3  0.16659019  0.33318038  0.50000000  1
  W  W4  2  0.33333333  0.66666667  0.74768223  1
  W  W5  1  0.66666667  0.33333333  0.50000000  1
