# generated using pymatgen
data_Re2IrOs5
_symmetry_space_group_name_H-M   Amm2
_cell_length_a   4.37513671
_cell_length_b   5.53425746
_cell_length_c   9.57483062
_cell_angle_alpha   90.00000000
_cell_angle_beta   90.00000000
_cell_angle_gamma   90.00000000
_symmetry_Int_Tables_number   38
_chemical_formula_structural   Re2IrOs5
_chemical_formula_sum   'Re4 Ir2 Os10'
_cell_volume   231.83664684
_cell_formula_units_Z   2
loop_
 _symmetry_equiv_pos_site_id
 _symmetry_equiv_pos_as_xyz
  1  'x, y, z'
  2  '-x, -y, z'
  3  '-x, y, z'
  4  'x, -y, z'
  5  'x, y+1/2, z+1/2'
  6  '-x, -y+1/2, z+1/2'
  7  '-x, y+1/2, z+1/2'
  8  'x, -y+1/2, z+1/2'
loop_
 _atom_site_type_symbol
 _atom_site_label
 _atom_site_symmetry_multiplicity
 _atom_site_fract_x
 _atom_site_fract_y
 _atom_site_fract_z
 _atom_site_occupancy
  Re  Re0  2  0.00000000  0.00000000  0.81775082  1
  Re  Re1  2  0.50000000  0.00000000  0.48729859  1
  Os  Os2  4  0.00000000  0.24888664  0.56936049  1
  Os  Os3  4  0.50000000  0.24678132  0.73427059  1
  Os  Os4  2  0.00000000  0.00000000  0.31909560  1
  Ir  Ir5  2  0.50000000  0.00000000  0.98532178  1
