# generated using pymatgen
data_Re2IrOs7
_symmetry_space_group_name_H-M   'P 1'
_cell_length_a   4.79417817
_cell_length_b   5.16946872
_cell_length_c   7.32670709
_cell_angle_alpha   66.17997722
_cell_angle_beta   109.12430671
_cell_angle_gamma   117.64439660
_symmetry_Int_Tables_number   1
_chemical_formula_structural   Re2IrOs7
_chemical_formula_sum   'Re2 Ir1 Os7'
_cell_volume   144.93045851
_cell_formula_units_Z   1
loop_
 _symmetry_equiv_pos_site_id
 _symmetry_equiv_pos_as_xyz
  1  'x, y, z'
loop_
 _atom_site_type_symbol
 _atom_site_label
 _atom_site_symmetry_multiplicity
 _atom_site_fract_x
 _atom_site_fract_y
 _atom_site_fract_z
 _atom_site_occupancy
  Re  Re0  1  0.85311042  0.44863978  0.49024978  1
  Re  Re1  1  0.31731257  0.94861057  0.59060759  1
  Ir  Ir2  1  0.65085048  0.44868392  0.09014346  1
  Os  Os3  1  0.45348123  0.45002527  0.69048879  1
  Os  Os4  1  0.11756234  0.94821723  0.19018423  1
  Os  Os5  1  0.71595613  0.94529999  0.39122048  1
  Os  Os6  1  0.91958088  0.95235501  0.78982147  1
  Os  Os7  1  0.51760136  0.94829597  0.99133564  1
  Os  Os8  1  0.04948056  0.44970343  0.88977812  1
  Os  Os9  1  0.24969060  0.44534341  0.29277375  1
