# generated using pymatgen
data_Re2IrOs7
_symmetry_space_group_name_H-M   P1
_cell_length_a   4.79417817
_cell_length_b   5.16811975
_cell_length_c   7.05769939
_cell_angle_alpha   71.72845533
_cell_angle_beta   89.98519944
_cell_angle_gamma   62.38416976
_symmetry_Int_Tables_number   1
_chemical_formula_structural   Re2IrOs7
_chemical_formula_sum   'Re2 Ir1 Os7'
_cell_volume   144.93045851
_cell_formula_units_Z   1
loop_
 _symmetry_equiv_pos_site_id
 _symmetry_equiv_pos_as_xyz
  1  'x, y, z'
loop_
 _atom_site_type_symbol
 _atom_site_label
 _atom_site_symmetry_multiplicity
 _atom_site_fract_x
 _atom_site_fract_y
 _atom_site_fract_z
 _atom_site_occupancy
  Re  Re0  1  0.08577914  0.06111044  0.49024978  1
  Re  Re1  1  0.22190559  0.46078183  0.59060759  1
  Os  Os2  1  0.02083913  0.86159853  0.19018423  1
  Os  Os3  1  0.29000099  0.66051845  0.88977812  1
  Os  Os4  1  0.42203026  0.06036839  0.99133564  1
  Os  Os5  1  0.48842656  0.26188283  0.29277375  1
  Os  Os6  1  0.62056434  0.66347953  0.39122048  1
  Os  Os7  1  0.68703283  0.85948594  0.69048879  1
  Os  Os8  1  0.82259560  0.25782352  0.78982147  1
  Ir  Ir9  1  0.88797690  0.46117262  0.09014346  1
