# generated using pymatgen
data_Re2Os4W
_symmetry_space_group_name_H-M   Pm
_cell_length_a   7.34527615
_cell_length_b   4.41969452
_cell_length_c   7.35592553
_cell_angle_alpha   90.00000000
_cell_angle_beta   119.84029825
_cell_angle_gamma   90.00000000
_symmetry_Int_Tables_number   6
_chemical_formula_structural   Re2Os4W
_chemical_formula_sum   'Re4 Os8 W2'
_cell_volume   207.14048198
_cell_formula_units_Z   2
loop_
 _symmetry_equiv_pos_site_id
 _symmetry_equiv_pos_as_xyz
  1  'x, y, z'
  2  'x, -y, z'
loop_
 _atom_site_type_symbol
 _atom_site_label
 _atom_site_symmetry_multiplicity
 _atom_site_fract_x
 _atom_site_fract_y
 _atom_site_fract_z
 _atom_site_occupancy
  Re  Re0  1  0.03211259  0.00000000  0.68552209  1
  Re  Re1  1  0.22856551  0.50000000  0.63778377  1
  Re  Re2  1  0.79564261  0.50000000  0.49689223  1
  Re  Re3  1  0.89618288  0.00000000  0.97941971  1
  Os  Os4  1  0.18157079  0.00000000  0.40035543  1
  Os  Os5  1  0.32749299  0.00000000  0.12621408  1
  Os  Os6  1  0.37341228  0.50000000  0.36294250  1
  Os  Os7  1  0.51760215  0.50000000  0.07374184  1
  Os  Os8  1  0.60899864  0.00000000  0.54709555  1
  Os  Os9  1  0.65849443  0.50000000  0.78527983  1
  Os  Os10  1  0.75425662  0.00000000  0.26302153  1
  Os  Os11  1  0.94121944  0.50000000  0.21515006  1
  W  W12  1  0.09136167  0.50000000  0.93294328  1
  W  W13  1  0.46550452  0.00000000  0.83715535  1
