# generated using pymatgen
data_Re2Os4W
_symmetry_space_group_name_H-M   'P 1'
_cell_length_a   4.41969452
_cell_length_b   7.35592553
_cell_length_c   7.34527615
_cell_angle_alpha   119.84029825
_cell_angle_beta   90.00000000
_cell_angle_gamma   90.00000000
_symmetry_Int_Tables_number   1
_chemical_formula_structural   Re2Os4W
_chemical_formula_sum   'Re4 Os8 W2'
_cell_volume   207.14048198
_cell_formula_units_Z   2
loop_
 _symmetry_equiv_pos_site_id
 _symmetry_equiv_pos_as_xyz
  1  'x, y, z'
loop_
 _atom_site_type_symbol
 _atom_site_label
 _atom_site_symmetry_multiplicity
 _atom_site_fract_x
 _atom_site_fract_y
 _atom_site_fract_z
 _atom_site_occupancy
  Re  Re0  1  0.00000000  0.02058029  0.10381712  1
  Re  Re1  1  0.00000000  0.31447791  0.96788741  1
  Re  Re2  1  0.50000000  0.50310777  0.20435739  1
  Re  Re3  1  0.50000000  0.36221623  0.77143449  1
  Os  Os4  1  0.50000000  0.63705750  0.62658772  1
  Os  Os5  1  0.50000000  0.21472017  0.34150557  1
  Os  Os6  1  0.00000000  0.59964457  0.81842921  1
  Os  Os7  1  0.00000000  0.73697847  0.24574338  1
  Os  Os8  1  0.50000000  0.78484994  0.05878056  1
  Os  Os9  1  0.00000000  0.45290445  0.39100136  1
  Os  Os10  1  0.00000000  0.87378592  0.67250701  1
  Os  Os11  1  0.50000000  0.92625816  0.48239785  1
  W  W12  1  0.50000000  0.06705672  0.90863833  1
  W  W13  1  0.00000000  0.16284465  0.53449548  1
