# generated using pymatgen
data_Re3Ir4Os9
_symmetry_space_group_name_H-M   'P 1'
_cell_length_a   4.79401363
_cell_length_b   5.54163773
_cell_length_c   8.73817638
_cell_angle_alpha   90.00000000
_cell_angle_beta   90.00000000
_cell_angle_gamma   90.14742854
_symmetry_Int_Tables_number   1
_chemical_formula_structural   Re3Ir4Os9
_chemical_formula_sum   'Re3 Ir4 Os9'
_cell_volume   232.14362660
_cell_formula_units_Z   1
loop_
 _symmetry_equiv_pos_site_id
 _symmetry_equiv_pos_as_xyz
  1  'x, y, z'
loop_
 _atom_site_type_symbol
 _atom_site_label
 _atom_site_symmetry_multiplicity
 _atom_site_fract_x
 _atom_site_fract_y
 _atom_site_fract_z
 _atom_site_occupancy
  Re  Re0  1  0.28455750  0.73312034  0.00000000  1
  Re  Re1  1  0.28450167  0.73147204  0.50000000  1
  Re  Re2  1  0.78224376  0.98697043  0.50000000  1
  Ir  Ir3  1  0.78530398  0.48379646  0.50000000  1
  Ir  Ir4  1  0.62163552  0.73355335  0.25038689  1
  Ir  Ir5  1  0.78595040  0.48210255  0.00000000  1
  Ir  Ir6  1  0.62163552  0.73355335  0.74961311  1
  Os  Os7  1  0.12239489  0.47958127  0.75011229  1
  Os  Os8  1  0.78279629  0.98504654  0.00000000  1
  Os  Os9  1  0.11843685  0.98266966  0.25007077  1
  Os  Os10  1  0.12239489  0.47958127  0.24988771  1
  Os  Os11  1  0.29003913  0.23189691  0.50000000  1
  Os  Os12  1  0.62134989  0.23195504  0.25045564  1
  Os  Os13  1  0.62134989  0.23195504  0.74954436  1
  Os  Os14  1  0.11843685  0.98266966  0.74992923  1
  Os  Os15  1  0.29051505  0.23163821  0.00000000  1
