# generated using pymatgen
data_Re3Os13
_symmetry_space_group_name_H-M   Amm2
_cell_length_a   8.74057629
_cell_length_b   5.53055322
_cell_length_c   9.57197444
_cell_angle_alpha   90.00000000
_cell_angle_beta   90.00000000
_cell_angle_gamma   90.00000000
_symmetry_Int_Tables_number   38
_chemical_formula_structural   Re3Os13
_chemical_formula_sum   'Re6 Os26'
_cell_volume   462.71137275
_cell_formula_units_Z   2
loop_
 _symmetry_equiv_pos_site_id
 _symmetry_equiv_pos_as_xyz
  1  'x, y, z'
  2  '-x, -y, z'
  3  '-x, y, z'
  4  'x, -y, z'
  5  'x, y+1/2, z+1/2'
  6  '-x, -y+1/2, z+1/2'
  7  '-x, y+1/2, z+1/2'
  8  'x, -y+1/2, z+1/2'
loop_
 _atom_site_type_symbol
 _atom_site_label
 _atom_site_symmetry_multiplicity
 _atom_site_fract_x
 _atom_site_fract_y
 _atom_site_fract_z
 _atom_site_occupancy
  Re  Re0  4  0.24941277  0.00000000  0.76968746  1
  Re  Re1  2  0.50000000  0.00000000  0.60109442  1
  Os  Os2  8  0.24981503  0.24677049  0.02004598  1
  Os  Os3  4  0.00000000  0.24694881  0.35260611  1
  Os  Os4  4  0.25004209  0.00000000  0.26735184  1
  Os  Os5  4  0.50000000  0.24738401  0.35191801  1
  Os  Os6  2  0.00000000  0.00000000  0.10343248  1
  Os  Os7  2  0.00000000  0.00000000  0.60143957  1
  Os  Os8  2  0.50000000  0.00000000  0.10307223  1
