# generated using pymatgen
data_Re3Os13
_symmetry_space_group_name_H-M   'P 1'
_cell_length_a   5.53055322
_cell_length_b   5.52742511
_cell_length_c   8.74057629
_cell_angle_alpha   90.00000000
_cell_angle_beta   90.00000000
_cell_angle_gamma   120.01872243
_symmetry_Int_Tables_number   1
_chemical_formula_structural   Re3Os13
_chemical_formula_sum   'Re3 Os13'
_cell_volume   231.35568637
_cell_formula_units_Z   1
loop_
 _symmetry_equiv_pos_site_id
 _symmetry_equiv_pos_as_xyz
  1  'x, y, z'
loop_
 _atom_site_type_symbol
 _atom_site_label
 _atom_site_symmetry_multiplicity
 _atom_site_fract_x
 _atom_site_fract_y
 _atom_site_fract_z
 _atom_site_occupancy
  Re  Re0  1  0.39890558  0.79781116  0.50000000  1
  Re  Re1  1  0.23031254  0.46062509  0.24941277  1
  Re  Re2  1  0.23031254  0.46062509  0.75058723  1
  Os  Os3  1  0.89692777  0.79385555  0.50000000  1
  Os  Os4  1  0.73264816  0.46529632  0.74995791  1
  Os  Os5  1  0.73264816  0.46529632  0.25004209  1
  Os  Os6  1  0.89546600  0.29616399  0.50000000  1
  Os  Os7  1  0.73318353  0.95990805  0.24981503  1
  Os  Os8  1  0.89656752  0.79313504  0.00000000  1
  Os  Os9  1  0.89434270  0.29478778  0.00000000  1
  Os  Os10  1  0.40069799  0.29616399  0.50000000  1
  Os  Os11  1  0.73318353  0.95990805  0.75018497  1
  Os  Os12  1  0.22672452  0.95990805  0.75018497  1
  Os  Os13  1  0.39856043  0.79712086  0.00000000  1
  Os  Os14  1  0.40044508  0.29478778  0.00000000  1
  Os  Os15  1  0.22672452  0.95990805  0.24981503  1
