# generated using pymatgen
data_Re4Os11Ru
_symmetry_space_group_name_H-M   Amm2
_cell_length_a   8.72997963
_cell_length_b   5.53340331
_cell_length_c   9.58398792
_cell_angle_alpha   90.00000000
_cell_angle_beta   90.00000000
_cell_angle_gamma   90.00000000
_symmetry_Int_Tables_number   38
_chemical_formula_structural   Re4Os11Ru
_chemical_formula_sum   'Re8 Os22 Ru2'
_cell_volume   462.96889471
_cell_formula_units_Z   2
loop_
 _symmetry_equiv_pos_site_id
 _symmetry_equiv_pos_as_xyz
  1  'x, y, z'
  2  '-x, -y, z'
  3  '-x, y, z'
  4  'x, -y, z'
  5  'x, y+1/2, z+1/2'
  6  '-x, -y+1/2, z+1/2'
  7  '-x, y+1/2, z+1/2'
  8  'x, -y+1/2, z+1/2'
loop_
 _atom_site_type_symbol
 _atom_site_label
 _atom_site_symmetry_multiplicity
 _atom_site_fract_x
 _atom_site_fract_y
 _atom_site_fract_z
 _atom_site_occupancy
  Re  Re0  4  0.25000549  0.00000000  0.67744431  1
  Re  Re1  2  0.00000000  0.00000000  0.34417617  1
  Re  Re2  2  0.50000000  0.00000000  0.34369100  1
  Os  Os3  8  0.24991252  0.24961920  0.42656999  1
  Os  Os4  4  0.00000000  0.24837767  0.59343719  1
  Os  Os5  4  0.24947713  0.00000000  0.17730895  1
  Os  Os6  4  0.50000000  0.24873719  0.59361017  1
  Ru  Ru7  2  0.00000000  0.00000000  0.84308001  1
  Os  Os8  2  0.50000000  0.00000000  0.84313012  1
