# generated using pymatgen
data_Re4Os11Ru
_symmetry_space_group_name_H-M   'P 1'
_cell_length_a   5.53340331
_cell_length_b   5.53333933
_cell_length_c   8.72997963
_cell_angle_alpha   90.00000000
_cell_angle_beta   90.00000000
_cell_angle_gamma   120.00038249
_symmetry_Int_Tables_number   1
_chemical_formula_structural   Re4Os11Ru
_chemical_formula_sum   'Re4 Os11 Ru1'
_cell_volume   231.48444736
_cell_formula_units_Z   1
loop_
 _symmetry_equiv_pos_site_id
 _symmetry_equiv_pos_as_xyz
  1  'x, y, z'
loop_
 _atom_site_type_symbol
 _atom_site_label
 _atom_site_symmetry_multiplicity
 _atom_site_fract_x
 _atom_site_fract_y
 _atom_site_fract_z
 _atom_site_occupancy
  Re  Re0  1  0.65582383  0.31164766  0.00000000  1
  Re  Re1  1  0.65630900  0.31261799  0.50000000  1
  Re  Re2  1  0.32255569  0.64511138  0.74999451  1
  Re  Re3  1  0.32255569  0.64511138  0.25000549  1
  Os  Os4  1  0.82304921  0.14686003  0.75008748  1
  Os  Os5  1  0.65512703  0.81277967  0.50000000  1
  Os  Os6  1  0.15818514  0.81312562  0.00000000  1
  Os  Os7  1  0.82269105  0.64538210  0.24947713  1
  Os  Os8  1  0.15765264  0.81277967  0.50000000  1
  Os  Os9  1  0.82269105  0.64538210  0.75052287  1
  Os  Os10  1  0.32381081  0.14686003  0.24991252  1
  Os  Os11  1  0.32381081  0.14686003  0.75008748  1
  Os  Os12  1  0.82304921  0.14686003  0.24991252  1
  Os  Os13  1  0.15686988  0.31373976  0.50000000  1
  Os  Os14  1  0.65494048  0.81312562  0.00000000  1
  Ru  Ru15  1  0.15691999  0.31383999  0.00000000  1
