# generated using pymatgen
data_Re5Os11
_symmetry_space_group_name_H-M   'P 1'
_cell_length_a   4.79435577
_cell_length_b   5.53967629
_cell_length_c   8.74969883
_cell_angle_alpha   90.00000000
_cell_angle_beta   90.00000000
_cell_angle_gamma   89.98984110
_symmetry_Int_Tables_number   1
_chemical_formula_structural   Re5Os11
_chemical_formula_sum   'Re5 Os11'
_cell_volume   232.38481369
_cell_formula_units_Z   1
loop_
 _symmetry_equiv_pos_site_id
 _symmetry_equiv_pos_as_xyz
  1  'x, y, z'
loop_
 _atom_site_type_symbol
 _atom_site_label
 _atom_site_symmetry_multiplicity
 _atom_site_fract_x
 _atom_site_fract_y
 _atom_site_fract_z
 _atom_site_occupancy
  Re  Re0  1  0.28342436  0.82847709  0.74828786  1
  Re  Re1  1  0.44826433  0.57562595  0.00000000  1
  Re  Re2  1  0.94798165  0.82954472  0.00000000  1
  Re  Re3  1  0.28342436  0.82847709  0.25171214  1
  Re  Re4  1  0.95069473  0.32795151  0.50000000  1
  Os  Os5  1  0.78375462  0.08013902  0.24978292  1
  Os  Os6  1  0.45019300  0.07914101  0.50000000  1
  Os  Os7  1  0.78471223  0.57694413  0.25039066  1
  Os  Os8  1  0.44938215  0.57743185  0.50000000  1
  Os  Os9  1  0.78375462  0.08013902  0.75021708  1
  Os  Os10  1  0.44927250  0.07704297  0.00000000  1
  Os  Os11  1  0.28085929  0.32810242  0.25006038  1
  Os  Os12  1  0.95048195  0.32828591  0.00000000  1
  Os  Os13  1  0.28085929  0.32810242  0.74993962  1
  Os  Os14  1  0.78471223  0.57694413  0.74960934  1
  Os  Os15  1  0.94832567  0.82929124  0.50000000  1
