# generated using pymatgen
data_Re5Os13
_symmetry_space_group_name_H-M   'P 1'
_cell_length_a   6.48792303
_cell_length_b   6.48792303
_cell_length_c   6.48528130
_cell_angle_alpha   79.69383252
_cell_angle_beta   79.69383252
_cell_angle_gamma   79.73171801
_symmetry_Int_Tables_number   1
_chemical_formula_structural   Re5Os13
_chemical_formula_sum   'Re5 Os13'
_cell_volume   261.21474522
_cell_formula_units_Z   1
loop_
 _symmetry_equiv_pos_site_id
 _symmetry_equiv_pos_as_xyz
  1  'x, y, z'
loop_
 _atom_site_type_symbol
 _atom_site_label
 _atom_site_symmetry_multiplicity
 _atom_site_fract_x
 _atom_site_fract_y
 _atom_site_fract_z
 _atom_site_occupancy
  Re  Re0  1  0.24326350  0.24326350  0.44446257  1
  Re  Re1  1  0.52257812  0.52257812  0.38848852  1
  Re  Re2  1  0.18886637  0.18886637  0.05426040  1
  Re  Re3  1  0.91041347  0.91041347  0.11166491  1
  Re  Re4  1  0.85500127  0.85500127  0.72068838  1
  Os  Os5  1  0.57695093  0.57695093  0.77818453  1
  Os  Os6  1  0.24445379  0.90991101  0.77735465  1
  Os  Os7  1  0.85536745  0.52124640  0.05488864  1
  Os  Os8  1  0.85474227  0.18881947  0.38859421  1
  Os  Os9  1  0.24360864  0.57828175  0.11013685  1
  Os  Os10  1  0.52218881  0.18837862  0.72179129  1
  Os  Os11  1  0.57828175  0.24360864  0.11013685  1
  Os  Os12  1  0.18881947  0.85474227  0.38859421  1
  Os  Os13  1  0.18837862  0.52218881  0.72179129  1
  Os  Os14  1  0.90991101  0.24445379  0.77735465  1
  Os  Os15  1  0.57701737  0.91139860  0.44342590  1
  Os  Os16  1  0.91139860  0.57701737  0.44342590  1
  Os  Os17  1  0.52124640  0.85536745  0.05488864  1
