# generated using pymatgen
data_ReIr2Os5
_symmetry_space_group_name_H-M   Pmm2
_cell_length_a   4.36276947
_cell_length_b   5.53972103
_cell_length_c   4.78469222
_cell_angle_alpha   90.00000000
_cell_angle_beta   90.00000000
_cell_angle_gamma   90.00000000
_symmetry_Int_Tables_number   25
_chemical_formula_structural   ReIr2Os5
_chemical_formula_sum   'Re1 Ir2 Os5'
_cell_volume   115.63895734
_cell_formula_units_Z   1
loop_
 _symmetry_equiv_pos_site_id
 _symmetry_equiv_pos_as_xyz
  1  'x, y, z'
  2  '-x, -y, z'
  3  '-x, y, z'
  4  'x, -y, z'
loop_
 _atom_site_type_symbol
 _atom_site_label
 _atom_site_symmetry_multiplicity
 _atom_site_fract_x
 _atom_site_fract_y
 _atom_site_fract_z
 _atom_site_occupancy
  Re  Re0  1  0.50000000  0.50000000  0.51910606  1
  Os  Os1  2  0.00000000  0.24871904  0.68060927  1
  Os  Os2  2  0.50000000  0.24930701  0.01595399  1
  Os  Os3  1  0.00000000  0.00000000  0.17799371  1
  Ir  Ir4  1  0.00000000  0.50000000  0.18050218  1
  Ir  Ir5  1  0.50000000  0.00000000  0.51059448  1
