# generated using pymatgen
data_ReIr2Os11
_symmetry_space_group_name_H-M   'P 1'
_cell_length_a   4.35964196
_cell_length_b   7.30947826
_cell_length_c   7.30313500
_cell_angle_alpha   119.99603594
_cell_angle_beta   90.00000000
_cell_angle_gamma   90.00000000
_symmetry_Int_Tables_number   1
_chemical_formula_structural   ReIr2Os11
_chemical_formula_sum   'Re1 Ir2 Os11'
_cell_volume   201.55543303
_cell_formula_units_Z   1
loop_
 _symmetry_equiv_pos_site_id
 _symmetry_equiv_pos_as_xyz
  1  'x, y, z'
loop_
 _atom_site_type_symbol
 _atom_site_label
 _atom_site_symmetry_multiplicity
 _atom_site_fract_x
 _atom_site_fract_y
 _atom_site_fract_z
 _atom_site_occupancy
  Re  Re0  1  0.50000000  0.32254471  0.46801461  1
  Ir  Ir1  1  0.00000000  0.22757780  0.99326761  1
  Ir  Ir2  1  0.50000000  0.75254315  0.61360862  1
  Os  Os3  1  0.00000000  0.08307267  0.27949127  1
  Os  Os4  1  0.00000000  0.37209758  0.70789591  1
  Os  Os5  1  0.00000000  0.65794325  0.13852073  1
  Os  Os6  1  0.00000000  0.94369912  0.56422298  1
  Os  Os7  1  0.50000000  0.46446140  0.18245290  1
  Os  Os8  1  0.50000000  0.18169192  0.75475083  1
  Os  Os9  1  0.00000000  0.79764995  0.85097505  1
  Os  Os10  1  0.50000000  0.89601940  0.32790184  1
  Os  Os11  1  0.50000000  0.03717642  0.04155452  1
  Os  Os12  1  0.00000000  0.51521698  0.42216819  1
  Os  Os13  1  0.50000000  0.60989302  0.89936844  1
