# generated using pymatgen
data_ReIrOs16
_symmetry_space_group_name_H-M   Cm
_cell_length_a   9.94619473
_cell_length_b   8.28337496
_cell_length_c   6.47084773
_cell_angle_alpha   90.00000000
_cell_angle_beta   103.62565707
_cell_angle_gamma   90.00000000
_symmetry_Int_Tables_number   8
_chemical_formula_structural   ReIrOs16
_chemical_formula_sum   'Re2 Ir2 Os32'
_cell_volume   518.11623741
_cell_formula_units_Z   2
loop_
 _symmetry_equiv_pos_site_id
 _symmetry_equiv_pos_as_xyz
  1  'x, y, z'
  2  'x, -y, z'
  3  'x+1/2, y+1/2, z'
  4  'x+1/2, -y+1/2, z'
loop_
 _atom_site_type_symbol
 _atom_site_label
 _atom_site_symmetry_multiplicity
 _atom_site_fract_x
 _atom_site_fract_y
 _atom_site_fract_z
 _atom_site_occupancy
  Re  Re0  2  0.21905159  0.00000000  0.69159025  1
  Os  Os1  4  0.05325640  0.16688478  0.35825215  1
  Os  Os2  4  0.16327359  0.33290167  0.07961839  1
  Os  Os3  4  0.21912116  0.33284270  0.69253073  1
  Os  Os4  4  0.33044338  0.16577821  0.41406739  1
  Os  Os5  4  0.38565749  0.16674563  0.02501950  1
  Os  Os6  4  0.49751817  0.33262706  0.74829909  1
  Os  Os7  2  0.05176435  0.50000000  0.35875965  1
  Os  Os8  2  0.16382974  0.00000000  0.08068966  1
  Ir  Ir9  2  0.33054516  0.50000000  0.41414711  1
  Os  Os10  2  0.38648442  0.50000000  0.02391217  1
  Os  Os11  2  0.49686043  0.00000000  0.74768742  1
