# generated using pymatgen
data_ReIr8Os5
_symmetry_space_group_name_H-M   'P 1'
_cell_length_a   4.39271555
_cell_length_b   7.30520775
_cell_length_c   7.31180460
_cell_angle_alpha   120.00205722
_cell_angle_beta   90.00000000
_cell_angle_gamma   90.00000000
_symmetry_Int_Tables_number   1
_chemical_formula_structural   ReIr8Os5
_chemical_formula_sum   'Re1 Ir8 Os5'
_cell_volume   203.19445768
_cell_formula_units_Z   1
loop_
 _symmetry_equiv_pos_site_id
 _symmetry_equiv_pos_as_xyz
  1  'x, y, z'
loop_
 _atom_site_type_symbol
 _atom_site_label
 _atom_site_symmetry_multiplicity
 _atom_site_fract_x
 _atom_site_fract_y
 _atom_site_fract_z
 _atom_site_occupancy
  Re  Re0  1  0.00000000  0.51408277  0.71831788  1
  Ir  Ir1  1  0.00000000  0.79892307  0.14679759  1
  Ir  Ir2  1  0.50000000  0.70477586  0.66799380  1
  Ir  Ir3  1  0.00000000  0.23509880  0.29409378  1
  Ir  Ir4  1  0.50000000  0.56357509  0.95897323  1
  Ir  Ir5  1  0.50000000  0.99343980  0.10241525  1
  Ir  Ir6  1  0.00000000  0.94255036  0.85789057  1
  Ir  Ir7  1  0.50000000  0.13562238  0.81584247  1
  Ir  Ir8  1  0.50000000  0.27669440  0.52690743  1
  Os  Os9  1  0.00000000  0.65688393  0.43141811  1
  Os  Os10  1  0.00000000  0.37274484  0.00383914  1
  Os  Os11  1  0.00000000  0.08794190  0.57919813  1
  Os  Os12  1  0.50000000  0.84863294  0.38455815  1
  Os  Os13  1  0.50000000  0.42295467  0.24248892  1
