# generated using pymatgen
data_ReIr3Os2
_symmetry_space_group_name_H-M   Cm
_cell_length_a   10.06068013
_cell_length_b   2.76226388
_cell_length_c   6.48336901
_cell_angle_alpha   90.00000000
_cell_angle_beta   103.87217733
_cell_angle_gamma   90.00000000
_symmetry_Int_Tables_number   8
_chemical_formula_structural   ReIr3Os2
_chemical_formula_sum   'Re2 Ir6 Os4'
_cell_volume   174.91932242
_cell_formula_units_Z   2
loop_
 _symmetry_equiv_pos_site_id
 _symmetry_equiv_pos_as_xyz
  1  'x, y, z'
  2  'x, -y, z'
  3  'x+1/2, y+1/2, z'
  4  'x+1/2, -y+1/2, z'
loop_
 _atom_site_type_symbol
 _atom_site_label
 _atom_site_symmetry_multiplicity
 _atom_site_fract_x
 _atom_site_fract_y
 _atom_site_fract_z
 _atom_site_occupancy
  Re  Re0  2  0.42791635  0.00000000  0.14620840  1
  Os  Os1  2  0.09178069  0.00000000  0.47524483  1
  Os  Os2  2  0.14736161  0.00000000  0.09256610  1
  Ir  Ir3  2  0.25975367  0.50000000  0.81825043  1
  Ir  Ir4  2  0.31470417  0.50000000  0.42032438  1
  Ir  Ir5  2  0.48474932  0.00000000  0.75857375  1
