# generated using pymatgen
data_ReIr2Os11
_symmetry_space_group_name_H-M   Pm
_cell_length_a   7.30313500
_cell_length_b   4.35964196
_cell_length_c   7.30674646
_cell_angle_alpha   90.00000000
_cell_angle_beta   119.95890631
_cell_angle_gamma   90.00000000
_symmetry_Int_Tables_number   6
_chemical_formula_structural   ReIr2Os11
_chemical_formula_sum   'Re1 Ir2 Os11'
_cell_volume   201.55543303
_cell_formula_units_Z   1
loop_
 _symmetry_equiv_pos_site_id
 _symmetry_equiv_pos_as_xyz
  1  'x, y, z'
  2  'x, -y, z'
loop_
 _atom_site_type_symbol
 _atom_site_label
 _atom_site_symmetry_multiplicity
 _atom_site_fract_x
 _atom_site_fract_y
 _atom_site_fract_z
 _atom_site_occupancy
  Re  Re0  1  0.14546990  0.50000000  0.67745529  1
  Os  Os1  1  0.00437810  0.50000000  0.96282358  1
  Os  Os2  1  0.05332510  0.00000000  0.20235005  1
  Os  Os3  1  0.19641860  0.00000000  0.91692733  1
  Os  Os4  1  0.28947542  0.50000000  0.39010698  1
  Os  Os5  1  0.33579833  0.00000000  0.62790242  1
  Os  Os6  1  0.43188244  0.50000000  0.10398060  1
  Os  Os7  1  0.48057748  0.00000000  0.34205675  1
  Os  Os8  1  0.57305891  0.50000000  0.81830808  1
  Os  Os9  1  0.62052387  0.00000000  0.05630088  1
  Os  Os10  1  0.71799150  0.50000000  0.53553860  1
  Ir  Ir11  1  0.76568981  0.00000000  0.77242220  1
  Ir  Ir12  1  0.86106547  0.50000000  0.24745685  1
  Os  Os13  1  0.90695122  0.00000000  0.48478302  1
