# generated using pymatgen
data_ReIr2Os13
_symmetry_space_group_name_H-M   'P 1'
_cell_length_a   4.78323038
_cell_length_b   5.51834015
_cell_length_c   8.71933376
_cell_angle_alpha   89.99643669
_cell_angle_beta   90.00118876
_cell_angle_gamma   89.98225772
_symmetry_Int_Tables_number   1
_chemical_formula_structural   ReIr2Os13
_chemical_formula_sum   'Re1 Ir2 Os13'
_cell_volume   230.15109491
_cell_formula_units_Z   1
loop_
 _symmetry_equiv_pos_site_id
 _symmetry_equiv_pos_as_xyz
  1  'x, y, z'
loop_
 _atom_site_type_symbol
 _atom_site_label
 _atom_site_symmetry_multiplicity
 _atom_site_fract_x
 _atom_site_fract_y
 _atom_site_fract_z
 _atom_site_occupancy
  Re  Re0  1  0.33391855  0.98281353  0.43490787  1
  Ir  Ir1  1  0.66842157  0.98321978  0.18507641  1
  Ir  Ir2  1  0.16705924  0.23413414  0.68486396  1
  Os  Os3  1  0.33613054  0.48374525  0.93621882  1
  Os  Os4  1  0.33406267  0.98336687  0.93541171  1
  Os  Os5  1  0.33583032  0.48373171  0.43420554  1
  Os  Os6  1  0.83307504  0.23413775  0.43547658  1
  Os  Os7  1  0.83336807  0.23406118  0.93476072  1
  Os  Os8  1  0.66777125  0.48469080  0.68507897  1
  Os  Os9  1  0.66827214  0.48312229  0.18522861  1
  Os  Os10  1  0.16745855  0.23429241  0.18501518  1
  Os  Os11  1  0.83407806  0.73307095  0.93411782  1
  Os  Os12  1  0.66728847  0.98284567  0.68531203  1
  Os  Os13  1  0.83370265  0.73228992  0.43604789  1
  Os  Os14  1  0.16811053  0.73348121  0.68511927  1
  Os  Os15  1  0.16861134  0.73241263  0.18519400  1
