# generated using pymatgen
data_ReIr2Os9
_symmetry_space_group_name_H-M   'P 1'
_cell_length_a   4.78873993
_cell_length_b   4.36057736
_cell_length_c   8.29166013
_cell_angle_alpha   90.00000000
_cell_angle_beta   90.01708571
_cell_angle_gamma   90.00000000
_symmetry_Int_Tables_number   1
_chemical_formula_structural   ReIr2Os9
_chemical_formula_sum   'Re1 Ir2 Os9'
_cell_volume   173.14371069
_cell_formula_units_Z   1
loop_
 _symmetry_equiv_pos_site_id
 _symmetry_equiv_pos_as_xyz
  1  'x, y, z'
loop_
 _atom_site_type_symbol
 _atom_site_label
 _atom_site_symmetry_multiplicity
 _atom_site_fract_x
 _atom_site_fract_y
 _atom_site_fract_z
 _atom_site_occupancy
  Re  Re0  1  0.85258274  0.00000000  0.04080424  1
  Ir  Ir1  1  0.18391122  0.50000000  0.70777631  1
  Ir  Ir2  1  0.35074009  0.00000000  0.20797972  1
  Os  Os3  1  0.68210905  0.50000000  0.54060223  1
  Os  Os4  1  0.34861063  0.00000000  0.87344034  1
  Os  Os5  1  0.18690297  0.50000000  0.04150831  1
  Os  Os6  1  0.18533669  0.50000000  0.37378770  1
  Os  Os7  1  0.34961106  0.00000000  0.54156628  1
  Os  Os8  1  0.68163831  0.50000000  0.87493570  1
  Os  Os9  1  0.85020237  0.00000000  0.70733568  1
  Os  Os10  1  0.68624480  0.50000000  0.20853845  1
  Os  Os11  1  0.85381537  0.00000000  0.37562539  1
