# generated using pymatgen
data_ReIr3Os8
_symmetry_space_group_name_H-M   'P 1'
_cell_length_a   4.78334464
_cell_length_b   4.36547411
_cell_length_c   8.29514156
_cell_angle_alpha   90.00000000
_cell_angle_beta   89.99087417
_cell_angle_gamma   90.00000000
_symmetry_Int_Tables_number   1
_chemical_formula_structural   ReIr3Os8
_chemical_formula_sum   'Re1 Ir3 Os8'
_cell_volume   173.21555355
_cell_formula_units_Z   1
loop_
 _symmetry_equiv_pos_site_id
 _symmetry_equiv_pos_as_xyz
  1  'x, y, z'
loop_
 _atom_site_type_symbol
 _atom_site_label
 _atom_site_symmetry_multiplicity
 _atom_site_fract_x
 _atom_site_fract_y
 _atom_site_fract_z
 _atom_site_occupancy
  Re  Re0  1  0.91881257  0.00000000  0.51720659  1
  Ir  Ir1  1  0.25656786  0.50000000  0.18252035  1
  Ir  Ir2  1  0.92197277  0.00000000  0.18318819  1
  Ir  Ir3  1  0.25513620  0.50000000  0.51906911  1
  Os  Os4  1  0.75213730  0.50000000  0.35149734  1
  Os  Os5  1  0.42035068  0.00000000  0.35169930  1
  Os  Os6  1  0.92238230  0.00000000  0.85065328  1
  Os  Os7  1  0.41927437  0.00000000  0.68512183  1
  Os  Os8  1  0.75301291  0.50000000  0.01593026  1
  Os  Os9  1  0.25586861  0.50000000  0.85115840  1
  Os  Os10  1  0.75400152  0.50000000  0.68444830  1
  Os  Os11  1  0.42284390  0.00000000  0.01529895  1
