# generated using pymatgen
data_ReIrOs2
_symmetry_space_group_name_H-M   Imm2
_cell_length_a   2.76264373
_cell_length_b   8.75012587
_cell_length_c   4.80266462
_cell_angle_alpha   90.00000000
_cell_angle_beta   90.00000000
_cell_angle_gamma   90.00000000
_symmetry_Int_Tables_number   44
_chemical_formula_structural   ReIrOs2
_chemical_formula_sum   'Re2 Ir2 Os4'
_cell_volume   116.09711904
_cell_formula_units_Z   2
loop_
 _symmetry_equiv_pos_site_id
 _symmetry_equiv_pos_as_xyz
  1  'x, y, z'
  2  '-x, -y, z'
  3  '-x, y, z'
  4  'x, -y, z'
  5  'x+1/2, y+1/2, z+1/2'
  6  '-x+1/2, -y+1/2, z+1/2'
  7  '-x+1/2, y+1/2, z+1/2'
  8  'x+1/2, -y+1/2, z+1/2'
loop_
 _atom_site_type_symbol
 _atom_site_label
 _atom_site_symmetry_multiplicity
 _atom_site_fract_x
 _atom_site_fract_y
 _atom_site_fract_z
 _atom_site_occupancy
  Re  Re0  2  0.00000000  0.00000000  0.44255800  1
  Os  Os1  4  0.00000000  0.25124219  0.11043677  1
  Ir  Ir2  2  0.00000000  0.50000000  0.44345019  1
