# generated using pymatgen
data_ReIr2Os3
_symmetry_space_group_name_H-M   Pm
_cell_length_a   4.78545030
_cell_length_b   4.37226897
_cell_length_c   4.79245734
_cell_angle_alpha   90.00000000
_cell_angle_beta   119.81635007
_cell_angle_gamma   90.00000000
_symmetry_Int_Tables_number   6
_chemical_formula_structural   ReIr2Os3
_chemical_formula_sum   'Re1 Ir2 Os3'
_cell_volume   87.00000826
_cell_formula_units_Z   1
loop_
 _symmetry_equiv_pos_site_id
 _symmetry_equiv_pos_as_xyz
  1  'x, y, z'
  2  'x, -y, z'
loop_
 _atom_site_type_symbol
 _atom_site_label
 _atom_site_symmetry_multiplicity
 _atom_site_fract_x
 _atom_site_fract_y
 _atom_site_fract_z
 _atom_site_occupancy
  Re  Re0  1  0.22771098  0.50000000  0.73977570  1
  Os  Os1  1  0.23524782  0.00000000  0.07586915  1
  Os  Os2  1  0.56272623  0.50000000  0.40477510  1
  Ir  Ir3  1  0.56331124  0.00000000  0.73813979  1
  Os  Os4  1  0.89741941  0.00000000  0.41021147  1
  Ir  Ir5  1  0.89767382  0.50000000  0.07449068  1
