# generated using pymatgen
data_ReIrOs6
_symmetry_space_group_name_H-M   P-6m2
_cell_length_a   5.52884548
_cell_length_b   5.52884548
_cell_length_c   4.36033193
_cell_angle_alpha   90.00000000
_cell_angle_beta   90.00000000
_cell_angle_gamma   120.00000000
_symmetry_Int_Tables_number   187
_chemical_formula_structural   ReIrOs6
_chemical_formula_sum   'Re1 Ir1 Os6'
_cell_volume   115.43010413
_cell_formula_units_Z   1
loop_
 _symmetry_equiv_pos_site_id
 _symmetry_equiv_pos_as_xyz
  1  'x, y, z'
  2  '-x+y, -x, -z'
  3  '-y, x-y, z'
  4  'x, y, -z'
  5  '-x+y, -x, z'
  6  '-y, x-y, -z'
  7  '-y, -x, -z'
  8  'x, x-y, z'
  9  '-x+y, y, -z'
  10  '-y, -x, z'
  11  'x, x-y, -z'
  12  '-x+y, y, z'
loop_
 _atom_site_type_symbol
 _atom_site_label
 _atom_site_symmetry_multiplicity
 _atom_site_fract_x
 _atom_site_fract_y
 _atom_site_fract_z
 _atom_site_occupancy
  Re  Re0  1  0.66666667  0.33333333  0.00000000  1
  Os  Os1  3  0.00335197  0.50167598  0.50000000  1
  Os  Os2  3  0.16558926  0.33117852  0.00000000  1
  Ir  Ir3  1  0.00000000  0.00000000  0.50000000  1
