# generated using pymatgen
data_ReIr2Os5
_symmetry_space_group_name_H-M   'P 1'
_cell_length_a   4.36276947
_cell_length_b   4.78469222
_cell_length_c   5.53972103
_cell_angle_alpha   90.00000000
_cell_angle_beta   90.00000000
_cell_angle_gamma   90.00000000
_symmetry_Int_Tables_number   1
_chemical_formula_structural   ReIr2Os5
_chemical_formula_sum   'Re1 Ir2 Os5'
_cell_volume   115.63895734
_cell_formula_units_Z   1
loop_
 _symmetry_equiv_pos_site_id
 _symmetry_equiv_pos_as_xyz
  1  'x, y, z'
loop_
 _atom_site_type_symbol
 _atom_site_label
 _atom_site_symmetry_multiplicity
 _atom_site_fract_x
 _atom_site_fract_y
 _atom_site_fract_z
 _atom_site_occupancy
  Re  Re0  1  0.50000000  0.48089394  0.50000000  1
  Ir  Ir1  1  0.50000000  0.48940552  0.00000000  1
  Ir  Ir2  1  0.00000000  0.81949782  0.50000000  1
  Os  Os3  1  0.00000000  0.31939073  0.24871904  1
  Os  Os4  1  0.00000000  0.82200629  0.00000000  1
  Os  Os5  1  0.50000000  0.98404601  0.24930701  1
  Os  Os6  1  0.50000000  0.98404601  0.75069299  1
  Os  Os7  1  0.00000000  0.31939073  0.75128096  1
