# generated using pymatgen
data_ReIr3Os2
_symmetry_space_group_name_H-M   'P 1'
_cell_length_a   2.76226388
_cell_length_b   5.21649754
_cell_length_c   6.48336901
_cell_angle_alpha   103.36776701
_cell_angle_beta   90.00000000
_cell_angle_gamma   105.35282973
_symmetry_Int_Tables_number   1
_chemical_formula_structural   ReIr3Os2
_chemical_formula_sum   'Re1 Ir3 Os2'
_cell_volume   87.45966121
_cell_formula_units_Z   1
loop_
 _symmetry_equiv_pos_site_id
 _symmetry_equiv_pos_as_xyz
  1  'x, y, z'
loop_
 _atom_site_type_symbol
 _atom_site_label
 _atom_site_symmetry_multiplicity
 _atom_site_fract_x
 _atom_site_fract_y
 _atom_site_fract_z
 _atom_site_occupancy
  Re  Re0  1  0.42791635  0.85583269  0.14620840  1
  Ir  Ir1  1  0.48474932  0.96949865  0.75857375  1
  Ir  Ir2  1  0.75975367  0.51950735  0.81825043  1
  Ir  Ir3  1  0.81470417  0.62940834  0.42032438  1
  Os  Os4  1  0.09178069  0.18356139  0.47524483  1
  Os  Os5  1  0.14736161  0.29472322  0.09256610  1
