# generated using pymatgen
data_ReIrOs16
_symmetry_space_group_name_H-M   'P 1'
_cell_length_a   6.47084773
_cell_length_b   6.47188323
_cell_length_c   6.47188323
_cell_angle_alpha   100.42368384
_cell_angle_beta   100.42925601
_cell_angle_gamma   79.57074399
_symmetry_Int_Tables_number   1
_chemical_formula_structural   ReIrOs16
_chemical_formula_sum   'Re1 Ir1 Os16'
_cell_volume   259.05811870
_cell_formula_units_Z   1
loop_
 _symmetry_equiv_pos_site_id
 _symmetry_equiv_pos_as_xyz
  1  'x, y, z'
loop_
 _atom_site_type_symbol
 _atom_site_label
 _atom_site_symmetry_multiplicity
 _atom_site_fract_x
 _atom_site_fract_y
 _atom_site_fract_z
 _atom_site_occupancy
  Re  Re0  1  0.69159025  0.78094841  0.21905159  1
  Ir  Ir1  1  0.41414711  0.16945484  0.83054516  1
  Os  Os2  1  0.69253073  0.11372154  0.55196386  1
  Os  Os3  1  0.07961839  0.50382474  0.83037192  1
  Os  Os4  1  0.02391217  0.11351558  0.88648442  1
  Os  Os5  1  0.74829909  0.83510890  0.83014523  1
  Os  Os6  1  0.07961839  0.16962808  0.49617526  1
  Os  Os7  1  0.08068966  0.83617026  0.16382974  1
  Os  Os8  1  0.69253073  0.44803614  0.88627846  1
  Os  Os9  1  0.74768742  0.50313957  0.49686043  1
  Os  Os10  1  0.74829909  0.16985477  0.16489110  1
  Os  Os11  1  0.41406739  0.50377841  0.16466517  1
  Os  Os12  1  0.35825215  0.11362839  0.22014118  1
  Os  Os13  1  0.35825215  0.77985882  0.88637161  1
  Os  Os14  1  0.35875965  0.44823565  0.55176435  1
  Os  Os15  1  0.02501950  0.78108813  0.55240312  1
  Os  Os16  1  0.41406739  0.83533483  0.49622159  1
  Os  Os17  1  0.02501950  0.44759688  0.21891187  1
