# generated using pymatgen
data_ReIr2Os12W
_symmetry_space_group_name_H-M   P1
_cell_length_a   5.53016105
_cell_length_b   5.53541563
_cell_length_c   8.75394678
_cell_angle_alpha   90.01842980
_cell_angle_beta   89.99760076
_cell_angle_gamma   119.96599337
_symmetry_Int_Tables_number   1
_chemical_formula_structural   ReIr2Os12W
_chemical_formula_sum   'Re1 Ir2 Os12 W1'
_cell_volume   232.15136465
_cell_formula_units_Z   1
loop_
 _symmetry_equiv_pos_site_id
 _symmetry_equiv_pos_as_xyz
  1  'x, y, z'
loop_
 _atom_site_type_symbol
 _atom_site_label
 _atom_site_symmetry_multiplicity
 _atom_site_fract_x
 _atom_site_fract_y
 _atom_site_fract_z
 _atom_site_occupancy
  Re  Re0  1  0.26109652  0.05793057  0.67303009  1
  Os  Os1  1  0.09130023  0.72512219  0.42590745  1
  Os  Os2  1  0.09224626  0.72658411  0.92568176  1
  Os  Os3  1  0.09495492  0.22809672  0.42479318  1
  Os  Os4  1  0.26307270  0.05921524  0.17657455  1
  Ir  Ir5  1  0.26473478  0.56378475  0.67557030  1
  Os  Os6  1  0.26529768  0.56558352  0.17781567  1
  Os  Os7  1  0.59657193  0.23090268  0.92504863  1
  Os  Os8  1  0.59674047  0.72695542  0.92503008  1
  Os  Os9  1  0.59757244  0.72667756  0.42512560  1
  Os  Os10  1  0.59849953  0.23215110  0.42758965  1
  Os  Os11  1  0.75857014  0.05790397  0.17704606  1
  Os  Os12  1  0.76052773  0.05717812  0.67483263  1
  Ir  Ir13  1  0.76167999  0.56184296  0.17542326  1
  Os  Os14  1  0.76258280  0.56369904  0.67657916  1
  W  W15  1  0.09435636  0.22814199  0.92832337  1
