# generated using pymatgen
data_ReIr2Os13
_symmetry_space_group_name_H-M   P1
_cell_length_a   4.78323038
_cell_length_b   5.51834015
_cell_length_c   8.71933376
_cell_angle_alpha   89.99643669
_cell_angle_beta   89.99881124
_cell_angle_gamma   90.01774228
_symmetry_Int_Tables_number   1
_chemical_formula_structural   ReIr2Os13
_chemical_formula_sum   'Re1 Ir2 Os13'
_cell_volume   230.15109491
_cell_formula_units_Z   1
loop_
 _symmetry_equiv_pos_site_id
 _symmetry_equiv_pos_as_xyz
  1  'x, y, z'
loop_
 _atom_site_type_symbol
 _atom_site_label
 _atom_site_symmetry_multiplicity
 _atom_site_fract_x
 _atom_site_fract_y
 _atom_site_fract_z
 _atom_site_occupancy
  Re  Re0  1  0.33391855  0.01718647  0.56509213  1
  Ir  Ir1  1  0.16705924  0.76586586  0.31513604  1
  Os  Os2  1  0.16745855  0.76570759  0.81498482  1
  Os  Os3  1  0.16811053  0.26651879  0.31488073  1
  Os  Os4  1  0.16861134  0.26758737  0.81480600  1
  Os  Os5  1  0.33406267  0.01663313  0.06458829  1
  Os  Os6  1  0.33583032  0.51626829  0.56579446  1
  Os  Os7  1  0.33613054  0.51625475  0.06378118  1
  Os  Os8  1  0.66728847  0.01715433  0.31468797  1
  Os  Os9  1  0.66777125  0.51530920  0.31492103  1
  Os  Os10  1  0.66827214  0.51687771  0.81477139  1
  Ir  Ir11  1  0.66842157  0.01678022  0.81492359  1
  Os  Os12  1  0.83307504  0.76586225  0.56452342  1
  Os  Os13  1  0.83336807  0.76593882  0.06523928  1
  Os  Os14  1  0.83370265  0.26771008  0.56395211  1
  Os  Os15  1  0.83407806  0.26692905  0.06588218  1
