# generated using pymatgen
data_ReIrOs2
_symmetry_space_group_name_H-M   'P 1'
_cell_length_a   2.76264373
_cell_length_b   4.80266462
_cell_length_c   5.17826206
_cell_angle_alpha   117.62827117
_cell_angle_beta   105.46610948
_cell_angle_gamma   90.00000000
_symmetry_Int_Tables_number   1
_chemical_formula_structural   ReIrOs2
_chemical_formula_sum   'Re1 Ir1 Os2'
_cell_volume   58.04855922
_cell_formula_units_Z   1
loop_
 _symmetry_equiv_pos_site_id
 _symmetry_equiv_pos_as_xyz
  1  'x, y, z'
loop_
 _atom_site_type_symbol
 _atom_site_label
 _atom_site_symmetry_multiplicity
 _atom_site_fract_x
 _atom_site_fract_y
 _atom_site_fract_z
 _atom_site_occupancy
  Re  Re0  1  0.00000000  0.55744200  0.00000000  1
  Ir  Ir1  1  0.50000000  0.05654981  0.00000000  1
  Os  Os2  1  0.25060390  0.14080543  0.50248439  1
  Os  Os3  1  0.74939610  0.63832104  0.49751561  1
