# generated using pymatgen
data_ReIr2Os12W
_symmetry_space_group_name_H-M   'P 1'
_cell_length_a   5.53563387
_cell_length_b   5.53016105
_cell_length_c   8.75394678
_cell_angle_alpha   90.00239924
_cell_angle_beta   89.98396780
_cell_angle_gamma   60.03008894
_symmetry_Int_Tables_number   1
_chemical_formula_structural   ReIr2Os12W
_chemical_formula_sum   'Re1 Ir2 Os12 W1'
_cell_volume   232.15136465
_cell_formula_units_Z   1
loop_
 _symmetry_equiv_pos_site_id
 _symmetry_equiv_pos_as_xyz
  1  'x, y, z'
loop_
 _atom_site_type_symbol
 _atom_site_label
 _atom_site_symmetry_multiplicity
 _atom_site_fract_x
 _atom_site_fract_y
 _atom_site_fract_z
 _atom_site_occupancy
  Re  Re0  1  0.05793057  0.20316595  0.32696991  1
  Ir  Ir1  1  0.56184296  0.19983703  0.82457674  1
  Ir  Ir2  1  0.56378475  0.70095003  0.32442970  1
  Os  Os3  1  0.22809672  0.86685819  0.57520682  1
  Os  Os4  1  0.05717812  0.70334962  0.32516737  1
  Os  Os5  1  0.05921524  0.20385746  0.82342545  1
  Os  Os6  1  0.72658411  0.36566216  0.07431824  1
  Os  Os7  1  0.72695542  0.86978505  0.07496992  1
  Os  Os8  1  0.23215110  0.36634843  0.57241035  1
  Os  Os9  1  0.05790397  0.70066617  0.82295394  1
  Os  Os10  1  0.72512219  0.36617804  0.57409255  1
  Os  Os11  1  0.56558352  0.69971416  0.82218433  1
  Os  Os12  1  0.23090268  0.36566925  0.07495137  1
  Os  Os13  1  0.72667756  0.87089488  0.57487440  1
  Os  Os14  1  0.56369904  0.19888377  0.32342084  1
  W  W15  1  0.22814199  0.86621437  0.07167663  1
