# generated using pymatgen
data_ReOs9
_symmetry_space_group_name_H-M   Amm2
_cell_length_a   4.35544261
_cell_length_b   13.82591111
_cell_length_c   4.78662709
_cell_angle_alpha   90.00000000
_cell_angle_beta   90.00000000
_cell_angle_gamma   90.00000000
_symmetry_Int_Tables_number   38
_chemical_formula_structural   ReOs9
_chemical_formula_sum   'Re2 Os18'
_cell_volume   288.24092989
_cell_formula_units_Z   2
loop_
 _symmetry_equiv_pos_site_id
 _symmetry_equiv_pos_as_xyz
  1  'x, y, z'
  2  '-x, -y, z'
  3  '-x, y, z'
  4  'x, -y, z'
  5  'x, y+1/2, z+1/2'
  6  '-x, -y+1/2, z+1/2'
  7  '-x, y+1/2, z+1/2'
  8  'x, -y+1/2, z+1/2'
loop_
 _atom_site_type_symbol
 _atom_site_label
 _atom_site_symmetry_multiplicity
 _atom_site_fract_x
 _atom_site_fract_y
 _atom_site_fract_z
 _atom_site_occupancy
  Re  Re0  2  0.50000000  0.00000000  0.58101614  1
  Os  Os1  4  0.00000000  0.10036489  0.41426246  1
  Os  Os2  4  0.00000000  0.19972014  0.91445566  1
  Os  Os3  4  0.50000000  0.10013226  0.07976850  1
  Os  Os4  4  0.50000000  0.20055325  0.58243086  1
  Os  Os5  2  0.00000000  0.00000000  0.91535717  1
