# generated using pymatgen
data_ReOs6W
_symmetry_space_group_name_H-M   Amm2
_cell_length_a   4.39844460
_cell_length_b   5.54565166
_cell_length_c   9.59548508
_cell_angle_alpha   90.00000000
_cell_angle_beta   90.00000000
_cell_angle_gamma   90.00000000
_symmetry_Int_Tables_number   38
_chemical_formula_structural   ReOs6W
_chemical_formula_sum   'Re2 Os12 W2'
_cell_volume   234.05539028
_cell_formula_units_Z   2
loop_
 _symmetry_equiv_pos_site_id
 _symmetry_equiv_pos_as_xyz
  1  'x, y, z'
  2  '-x, -y, z'
  3  '-x, y, z'
  4  'x, -y, z'
  5  'x, y+1/2, z+1/2'
  6  '-x, -y+1/2, z+1/2'
  7  '-x, y+1/2, z+1/2'
  8  'x, -y+1/2, z+1/2'
loop_
 _atom_site_type_symbol
 _atom_site_label
 _atom_site_symmetry_multiplicity
 _atom_site_fract_x
 _atom_site_fract_y
 _atom_site_fract_z
 _atom_site_occupancy
  Re  Re0  2  0.00000000  0.00000000  0.64297998  1
  Os  Os1  4  0.00000000  0.24515594  0.39421156  1
  Os  Os2  4  0.50000000  0.24624434  0.06418655  1
  Os  Os3  2  0.00000000  0.00000000  0.14744571  1
  Os  Os4  2  0.50000000  0.00000000  0.30948524  1
  W  W5  2  0.50000000  0.00000000  0.81326155  1
