# generated using pymatgen
data_ReOs6W
_symmetry_space_group_name_H-M   'P 1'
_cell_length_a   4.39844460
_cell_length_b   5.54565166
_cell_length_c   5.54138039
_cell_angle_alpha   120.02550102
_cell_angle_beta   90.00000000
_cell_angle_gamma   90.00000000
_symmetry_Int_Tables_number   1
_chemical_formula_structural   ReOs6W
_chemical_formula_sum   'Re1 Os6 W1'
_cell_volume   117.02769514
_cell_formula_units_Z   1
loop_
 _symmetry_equiv_pos_site_id
 _symmetry_equiv_pos_as_xyz
  1  'x, y, z'
loop_
 _atom_site_type_symbol
 _atom_site_label
 _atom_site_symmetry_multiplicity
 _atom_site_fract_x
 _atom_site_fract_y
 _atom_site_fract_z
 _atom_site_occupancy
  Re  Re0  1  0.00000000  0.35702002  0.71404004  1
  Os  Os1  1  0.00000000  0.36063249  0.21157688  1
  Os  Os2  1  0.50000000  0.18205779  0.87162690  1
  Os  Os3  1  0.00000000  0.85255429  0.70510858  1
  Os  Os4  1  0.50000000  0.69051476  0.38102952  1
  Os  Os5  1  0.50000000  0.68956911  0.87162690  1
  Os  Os6  1  0.00000000  0.85094438  0.21157688  1
  W  W7  1  0.50000000  0.18673845  0.37347690  1
