# generated using pymatgen
data_ReOs9
_symmetry_space_group_name_H-M   'P 1'
_cell_length_a   4.35544261
_cell_length_b   4.78662709
_cell_length_c   7.31552488
_cell_angle_alpha   109.09621115
_cell_angle_beta   90.00000000
_cell_angle_gamma   90.00000000
_symmetry_Int_Tables_number   1
_chemical_formula_structural   ReOs9
_chemical_formula_sum   'Re1 Os9'
_cell_volume   144.12046495
_cell_formula_units_Z   1
loop_
 _symmetry_equiv_pos_site_id
 _symmetry_equiv_pos_as_xyz
  1  'x, y, z'
loop_
 _atom_site_type_symbol
 _atom_site_label
 _atom_site_symmetry_multiplicity
 _atom_site_fract_x
 _atom_site_fract_y
 _atom_site_fract_z
 _atom_site_occupancy
  Re  Re0  1  0.50000000  0.58101614  0.00000000  1
  Os  Os1  1  0.00000000  0.51462735  0.20072978  1
  Os  Os2  1  0.50000000  0.78298410  0.40110649  1
  Os  Os3  1  0.00000000  0.91535717  0.00000000  1
  Os  Os4  1  0.00000000  0.71473553  0.60055973  1
  Os  Os5  1  0.00000000  0.31389757  0.79927022  1
  Os  Os6  1  0.00000000  0.11417580  0.39944027  1
  Os  Os7  1  0.50000000  0.17990076  0.20026452  1
  Os  Os8  1  0.50000000  0.97963624  0.79973548  1
  Os  Os9  1  0.50000000  0.38187761  0.59889351  1
