# generated using pymatgen
data_ReOs3W
_symmetry_space_group_name_H-M   'P 1'
_cell_length_a   4.81642558
_cell_length_b   5.23442838
_cell_length_c   7.35442274
_cell_angle_alpha   66.42960501
_cell_angle_beta   108.98661444
_cell_angle_gamma   117.46559348
_symmetry_Int_Tables_number   1
_chemical_formula_structural   ReOs3W
_chemical_formula_sum   'Re2 Os6 W2'
_cell_volume   148.50910248
_cell_formula_units_Z   2
loop_
 _symmetry_equiv_pos_site_id
 _symmetry_equiv_pos_as_xyz
  1  'x, y, z'
loop_
 _atom_site_type_symbol
 _atom_site_label
 _atom_site_symmetry_multiplicity
 _atom_site_fract_x
 _atom_site_fract_y
 _atom_site_fract_z
 _atom_site_occupancy
  Re  Re0  1  0.72248266  0.26430874  0.65951396  1
  Re  Re1  1  0.51734499  0.26016725  0.25261704  1
  Os  Os2  1  0.32382407  0.26635495  0.85683237  1
  Os  Os3  1  0.65385521  0.76301484  0.35717124  1
  Os  Os4  1  0.91744973  0.25939333  0.05654015  1
  Os  Os5  1  0.84663482  0.76075139  0.75503242  1
  Os  Os6  1  0.44915649  0.75812286  0.95558414  1
  Os  Os7  1  0.25262317  0.76010239  0.55725470  1
  W  W8  1  0.05172363  0.77302314  0.15350512  1
  W  W9  1  0.11565453  0.24964410  0.45982814  1
