# generated using pymatgen
data_ReOs14W
_symmetry_space_group_name_H-M   Amm2
_cell_length_a   8.75267540
_cell_length_b   5.53457516
_cell_length_c   9.58548167
_cell_angle_alpha   90.00000000
_cell_angle_beta   90.00000000
_cell_angle_gamma   90.00000000
_symmetry_Int_Tables_number   38
_chemical_formula_structural   ReOs14W
_chemical_formula_sum   'Re2 Os28 W2'
_cell_volume   464.34316036
_cell_formula_units_Z   2
loop_
 _symmetry_equiv_pos_site_id
 _symmetry_equiv_pos_as_xyz
  1  'x, y, z'
  2  '-x, -y, z'
  3  '-x, y, z'
  4  'x, -y, z'
  5  'x, y+1/2, z+1/2'
  6  '-x, -y+1/2, z+1/2'
  7  '-x, y+1/2, z+1/2'
  8  'x, -y+1/2, z+1/2'
loop_
 _atom_site_type_symbol
 _atom_site_label
 _atom_site_symmetry_multiplicity
 _atom_site_fract_x
 _atom_site_fract_y
 _atom_site_fract_z
 _atom_site_occupancy
  Re  Re0  2  0.50000000  0.00000000  0.55278873  1
  Os  Os1  8  0.25155757  0.24869557  0.46676857  1
  Os  Os2  4  0.00000000  0.24900888  0.79934539  1
  Os  Os3  4  0.24966267  0.00000000  0.71773133  1
  Os  Os4  4  0.25134135  0.00000000  0.21838767  1
  Os  Os5  4  0.50000000  0.24839118  0.79913528  1
  Os  Os6  2  0.00000000  0.00000000  0.55246325  1
  Os  Os7  2  0.50000000  0.00000000  0.05156906  1
  W  W8  2  0.00000000  0.00000000  0.05132280  1
