# generated using pymatgen
data_ReOs14
_symmetry_space_group_name_H-M   'P 1'
_cell_length_a   4.77253939
_cell_length_b   6.77151365
_cell_length_c   7.29214917
_cell_angle_alpha   98.85019278
_cell_angle_beta   109.07531574
_cell_angle_gamma   96.74199863
_symmetry_Int_Tables_number   1
_chemical_formula_structural   ReOs14
_chemical_formula_sum   'Re1 Os14'
_cell_volume   216.49389595
_cell_formula_units_Z   1
loop_
 _symmetry_equiv_pos_site_id
 _symmetry_equiv_pos_as_xyz
  1  'x, y, z'
loop_
 _atom_site_type_symbol
 _atom_site_label
 _atom_site_symmetry_multiplicity
 _atom_site_fract_x
 _atom_site_fract_y
 _atom_site_fract_z
 _atom_site_occupancy
  Re  Re0  1  0.00000000  0.00000000  0.00000000  1
  Os  Os1  1  0.79928893  0.00001045  0.59914729  1
  Os  Os2  1  0.59995595  0.99994647  0.19971633  1
  Os  Os3  1  0.02313070  0.33741111  0.26816180  1
  Os  Os4  1  0.57597279  0.66270080  0.93254255  1
  Os  Os5  1  0.37728595  0.66244375  0.53316213  1
  Os  Os6  1  0.42402721  0.33729920  0.06745745  1
  Os  Os7  1  0.77624342  0.66239438  0.33227882  1
  Os  Os8  1  0.82299067  0.33818119  0.86727601  1
  Os  Os9  1  0.22375658  0.33760562  0.66772118  1
  Os  Os10  1  0.20071107  0.99998955  0.40085271  1
  Os  Os11  1  0.40004405  0.00005353  0.80028367  1
  Os  Os12  1  0.17700933  0.66181881  0.13272399  1
  Os  Os13  1  0.97686930  0.66258889  0.73183820  1
  Os  Os14  1  0.62271405  0.33755625  0.46683787  1
