# generated using pymatgen
data_ReOs11W2
_symmetry_space_group_name_H-M   P1
_cell_length_a   4.79954214
_cell_length_b   5.19764619
_cell_length_c   8.55889442
_cell_angle_alpha   90.12841015
_cell_angle_beta   106.25741727
_cell_angle_gamma   89.99974354
_symmetry_Int_Tables_number   1
_chemical_formula_structural   ReOs11W2
_chemical_formula_sum   'Re1 Os11 W2'
_cell_volume   204.97476838
_cell_formula_units_Z   1
loop_
 _symmetry_equiv_pos_site_id
 _symmetry_equiv_pos_as_xyz
  1  'x, y, z'
loop_
 _atom_site_type_symbol
 _atom_site_label
 _atom_site_symmetry_multiplicity
 _atom_site_fract_x
 _atom_site_fract_y
 _atom_site_fract_z
 _atom_site_occupancy
  Re  Re0  1  0.99274414  0.80427185  0.62773031  1
  Os  Os1  1  0.01527355  0.01233593  0.34711865  1
  Os  Os2  1  0.13709925  0.09065943  0.91112484  1
  Os  Os3  1  0.16018218  0.29645707  0.63031658  1
  Os  Os4  1  0.28368848  0.37132913  0.20280551  1
  Os  Os5  1  0.30360131  0.58398629  0.91476508  1
  Os  Os6  1  0.42341315  0.65394182  0.48793700  1
  Os  Os7  1  0.56499095  0.93833389  0.77306836  1
  Os  Os8  1  0.59014603  0.16070682  0.48580244  1
  Os  Os9  1  0.73254010  0.44714404  0.77074099  1
  Os  Os10  1  0.85048157  0.51476143  0.34373726  1
  Os  Os11  1  0.86979750  0.73118917  0.05492320  1
  W  W12  1  0.44548931  0.86458997  0.20282343  1
  W  W13  1  0.70893196  0.23435947  0.05627186  1
