# generated using pymatgen
data_ReOs7
_symmetry_space_group_name_H-M   Pmm2
_cell_length_a   4.36115076
_cell_length_b   5.52797466
_cell_length_c   4.78245911
_cell_angle_alpha   90.00000000
_cell_angle_beta   90.00000000
_cell_angle_gamma   90.00000000
_symmetry_Int_Tables_number   25
_chemical_formula_structural   ReOs7
_chemical_formula_sum   'Re1 Os7'
_cell_volume   115.29710684
_cell_formula_units_Z   1
loop_
 _symmetry_equiv_pos_site_id
 _symmetry_equiv_pos_as_xyz
  1  'x, y, z'
  2  '-x, -y, z'
  3  '-x, y, z'
  4  'x, -y, z'
loop_
 _atom_site_type_symbol
 _atom_site_label
 _atom_site_symmetry_multiplicity
 _atom_site_fract_x
 _atom_site_fract_y
 _atom_site_fract_z
 _atom_site_occupancy
  Re  Re0  1  0.50000000  0.00000000  0.18529388  1
  Os  Os1  2  0.00000000  0.25107941  0.01648098  1
  Os  Os2  2  0.50000000  0.25198045  0.68307135  1
  Os  Os3  1  0.00000000  0.00000000  0.51965263  1
  Os  Os4  1  0.00000000  0.50000000  0.51767791  1
  Os  Os5  1  0.50000000  0.50000000  0.18767014  1
