# generated using pymatgen
data_Al2Co6AuS46
_symmetry_space_group_name_H-M   P-1
_cell_length_a   9.10559619
_cell_length_b   9.94320216
_cell_length_c   15.29203697
_cell_angle_alpha   90.49876968
_cell_angle_beta   90.22534097
_cell_angle_gamma   105.89037168
_symmetry_Int_Tables_number   2
_chemical_formula_structural   Al2Co6AuS46
_chemical_formula_sum   'Al2 Co6 Au1 S46'
_cell_volume   1331.53696156
_cell_formula_units_Z   1
loop_
 _symmetry_equiv_pos_site_id
 _symmetry_equiv_pos_as_xyz
  1  'x, y, z'
  2  '-x, -y, -z'
loop_
 _atom_site_type_symbol
 _atom_site_label
 _atom_site_symmetry_multiplicity
 _atom_site_fract_x
 _atom_site_fract_y
 _atom_site_fract_z
 _atom_site_occupancy
  Al  Al0  2  0.05203374  0.03214559  0.31094199  1
  Co  Co1  2  0.31270989  0.45135684  0.29586536  1
  Co  Co2  2  0.31338906  0.74821586  0.42700423  1
  Co  Co3  2  0.49473585  0.20872290  0.37715332  1
  Au  Au4  1  0.50000000  0.50000000  0.50000000  1
  S  S5  2  0.01936185  0.68354324  0.84872362  1
  S  S6  2  0.02721573  0.12674060  0.57562257  1
  S  S7  2  0.02809562  0.41348680  0.71129774  1
  S  S8  2  0.04871360  0.11123642  0.80693448  1
  S  S9  2  0.05485393  0.73006788  0.18955797  1
  S  S10  2  0.09966138  0.84714222  0.93353202  1
  S  S11  2  0.10155051  0.26912295  0.26011037  1
  S  S12  2  0.11816288  0.79693158  0.49487202  1
  S  S13  2  0.14973566  0.55544175  0.36323211  1
  S  S14  2  0.20760880  0.94847756  0.62279399  1
  S  S15  2  0.30392097  0.35979846  0.01484802  1
  S  S16  2  0.30512126  0.82712658  0.69159013  1
  S  S17  2  0.31760309  0.05376837  0.29596230  1
  S  S18  2  0.32093849  0.31715850  0.41120495  1
  S  S19  2  0.32408088  0.62362942  0.55486790  1
  S  S20  2  0.33241991  0.91965163  0.91546771  1
  S  S21  2  0.35169980  0.85964873  0.30314257  1
  S  S22  2  0.38042655  0.21968734  0.07018456  1
  S  S23  2  0.39547515  0.53932502  0.15966694  1
  S  S24  2  0.39572991  0.76015336  0.98214913  1
  S  S25  2  0.47634815  0.63076807  0.36783645  1
  S  S26  2  0.48330085  0.09844312  0.50329362  1
  S  S27  2  0.49426940  0.40518821  0.21016287  1
