# generated using pymatgen
data_Al2Co(Au3S23)2
_symmetry_space_group_name_H-M   'P 1'
_cell_length_a   9.80491577
_cell_length_b   13.41614261
_cell_length_c   13.86532506
_cell_angle_alpha   102.14326485
_cell_angle_beta   93.63664529
_cell_angle_gamma   109.78804076
_symmetry_Int_Tables_number   1
_chemical_formula_structural   Al2Co(Au3S23)2
_chemical_formula_sum   'Al2 Co1 Au6 S46'
_cell_volume   1659.73343562
_cell_formula_units_Z   1
loop_
 _symmetry_equiv_pos_site_id
 _symmetry_equiv_pos_as_xyz
  1  'x, y, z'
loop_
 _atom_site_type_symbol
 _atom_site_label
 _atom_site_symmetry_multiplicity
 _atom_site_fract_x
 _atom_site_fract_y
 _atom_site_fract_z
 _atom_site_occupancy
  Al  Al0  1  0.87026485  0.05308066  0.20246508  1
  Al  Al1  1  0.12973515  0.94691934  0.79753492  1
  Co  Co2  1  0.50000000  0.50000000  0.50000000  1
  Au  Au3  1  0.00268009  0.40656024  0.59353820  1
  Au  Au4  1  0.99731991  0.59343976  0.40646180  1
  Au  Au5  1  0.39822521  0.64347213  0.70878881  1
  Au  Au6  1  0.60177479  0.35652787  0.29121119  1
  Au  Au7  1  0.78820737  0.66697900  0.56632527  1
  Au  Au8  1  0.21179263  0.33302100  0.43367473  1
  S  S9  1  0.38370743  0.62054790  0.52650622  1
  S  S10  1  0.61629257  0.37945210  0.47349378  1
  S  S11  1  0.51407184  0.50807340  0.66468126  1
  S  S12  1  0.48592816  0.49192660  0.33531874  1
  S  S13  1  0.16690774  0.31483736  0.59633753  1
  S  S14  1  0.83309226  0.68516264  0.40366247  1
  S  S15  1  0.97409811  0.39430561  0.84958903  1
  S  S16  1  0.02590189  0.60569439  0.15041097  1
  S  S17  1  0.82514189  0.85999347  0.60872401  1
  S  S18  1  0.17485811  0.14000653  0.39127599  1
  S  S19  1  0.16151081  0.51623464  0.47979141  1
  S  S20  1  0.83848919  0.48376536  0.52020859  1
  S  S21  1  0.85758792  0.34059851  0.71664381  1
  S  S22  1  0.14241208  0.65940149  0.28335619  1
  S  S23  1  0.13487649  0.78118447  0.71021050  1
  S  S24  1  0.86512351  0.21881553  0.28978950  1
  S  S25  1  0.36958462  0.63173072  0.87590594  1
  S  S26  1  0.63041538  0.36826928  0.12409406  1
  S  S27  1  0.35565737  0.81960843  0.72981424  1
  S  S28  1  0.64434263  0.18039157  0.27018576  1
  S  S29  1  0.17596544  0.92997618  0.50988724  1
  S  S30  1  0.82403456  0.07002382  0.49011276  1
  S  S31  1  0.72462258  0.61733603  0.71744928  1
  S  S32  1  0.27537742  0.38266397  0.28255072  1
  S  S33  1  0.74601539  0.06137773  0.06051517  1
  S  S34  1  0.25398461  0.93862227  0.93948483  1
  S  S35  1  0.68354642  0.94801103  0.38876151  1
  S  S36  1  0.31645358  0.05198897  0.61123849  1
  S  S37  1  0.48409805  0.94042206  0.35645934  1
  S  S38  1  0.51590195  0.05957794  0.64354066  1
  S  S39  1  0.78105882  0.90222755  0.25918598  1
  S  S40  1  0.21894118  0.09777245  0.74081402  1
  S  S41  1  0.08597623  0.07095737  0.14335029  1
  S  S42  1  0.91402377  0.92904263  0.85664971  1
  S  S43  1  0.15275071  0.34235452  0.02201458  1
  S  S44  1  0.84724929  0.65764548  0.97798542  1
  S  S45  1  0.76392980  0.91143461  0.73624077  1
  S  S46  1  0.23607020  0.08856539  0.26375923  1
  S  S47  1  0.45277419  0.26638241  0.02588119  1
  S  S48  1  0.54722581  0.73361759  0.97411881  1
  S  S49  1  0.35712672  0.36560537  0.97346617  1
  S  S50  1  0.64287328  0.63439463  0.02653383  1
  S  S51  1  0.00266376  0.74060490  0.09828815  1
  S  S52  1  0.99733624  0.25939510  0.90171185  1
  S  S53  1  0.43149550  0.94236829  0.87332911  1
  S  S54  1  0.56850450  0.05763171  0.12667089  1
