# generated using pymatgen
data_Al2Co6AuS46
_symmetry_space_group_name_H-M   'P 1'
_cell_length_a   9.10559619
_cell_length_b   9.94320216
_cell_length_c   15.29203697
_cell_angle_alpha   90.49876968
_cell_angle_beta   89.77465903
_cell_angle_gamma   74.10962832
_symmetry_Int_Tables_number   1
_chemical_formula_structural   Al2Co6AuS46
_chemical_formula_sum   'Al2 Co6 Au1 S46'
_cell_volume   1331.53696156
_cell_formula_units_Z   1
loop_
 _symmetry_equiv_pos_site_id
 _symmetry_equiv_pos_as_xyz
  1  'x, y, z'
loop_
 _atom_site_type_symbol
 _atom_site_label
 _atom_site_symmetry_multiplicity
 _atom_site_fract_x
 _atom_site_fract_y
 _atom_site_fract_z
 _atom_site_occupancy
  Al  Al0  1  0.05203374  0.96785441  0.68905801  1
  Al  Al1  1  0.94796626  0.03214559  0.31094199  1
  Co  Co2  1  0.50526415  0.20872290  0.37715332  1
  Co  Co3  1  0.49473585  0.79127710  0.62284668  1
  Co  Co4  1  0.68729011  0.45135684  0.29586536  1
  Co  Co5  1  0.31270989  0.54864316  0.70413464  1
  Co  Co6  1  0.68661094  0.74821586  0.42700423  1
  Co  Co7  1  0.31338906  0.25178414  0.57299577  1
  Au  Au8  1  0.50000000  0.50000000  0.50000000  1
  S  S9  1  0.67906151  0.31715850  0.41120495  1
  S  S10  1  0.32093849  0.68284150  0.58879505  1
  S  S11  1  0.52365185  0.63076807  0.36783645  1
  S  S12  1  0.47634815  0.36923193  0.63216355  1
  S  S13  1  0.32408088  0.37637058  0.44513210  1
  S  S14  1  0.67591912  0.62362942  0.55486790  1
  S  S15  1  0.50573060  0.40518821  0.21016287  1
  S  S16  1  0.49426940  0.59481179  0.78983713  1
  S  S17  1  0.85026434  0.55544175  0.36323211  1
  S  S18  1  0.14973566  0.44455825  0.63676789  1
  S  S19  1  0.51669915  0.09844312  0.50329362  1
  S  S20  1  0.48330085  0.90155688  0.49670638  1
  S  S21  1  0.30512126  0.17287342  0.30840987  1
  S  S22  1  0.69487874  0.82712658  0.69159013  1
  S  S23  1  0.68239691  0.05376837  0.29596230  1
  S  S24  1  0.31760309  0.94623163  0.70403770  1
  S  S25  1  0.60452485  0.53932502  0.15966694  1
  S  S26  1  0.39547515  0.46067498  0.84033306  1
  S  S27  1  0.89844949  0.26912295  0.26011037  1
  S  S28  1  0.10155051  0.73087705  0.73988963  1
  S  S29  1  0.88183712  0.79693158  0.49487202  1
  S  S30  1  0.11816288  0.20306842  0.50512798  1
  S  S31  1  0.64830020  0.85964873  0.30314257  1
  S  S32  1  0.35169980  0.14035127  0.69685743  1
  S  S33  1  0.90033862  0.84714222  0.93353202  1
  S  S34  1  0.09966138  0.15285778  0.06646798  1
  S  S35  1  0.97278427  0.12674060  0.57562257  1
  S  S36  1  0.02721573  0.87325940  0.42437743  1
  S  S37  1  0.79239120  0.94847756  0.62279399  1
  S  S38  1  0.20760880  0.05152244  0.37720601  1
  S  S39  1  0.95128640  0.11123642  0.80693448  1
  S  S40  1  0.04871360  0.88876358  0.19306552  1
  S  S41  1  0.05485393  0.26993212  0.81044203  1
  S  S42  1  0.94514607  0.73006788  0.18955797  1
  S  S43  1  0.38042655  0.78031266  0.92981544  1
  S  S44  1  0.61957345  0.21968734  0.07018456  1
  S  S45  1  0.02809562  0.58651320  0.28870226  1
  S  S46  1  0.97190438  0.41348680  0.71129774  1
  S  S47  1  0.39572991  0.23984664  0.01785087  1
  S  S48  1  0.60427009  0.76015336  0.98214913  1
  S  S49  1  0.33241991  0.08034837  0.08453229  1
  S  S50  1  0.66758009  0.91965163  0.91546771  1
  S  S51  1  0.69607903  0.35979846  0.01484802  1
  S  S52  1  0.30392097  0.64020154  0.98515198  1
  S  S53  1  0.01936185  0.31645676  0.15127638  1
  S  S54  1  0.98063815  0.68354324  0.84872362  1
