# generated using pymatgen
data_Al2Co(Au3S23)2
_symmetry_space_group_name_H-M   P-1
_cell_length_a   9.80491577
_cell_length_b   13.41614261
_cell_length_c   13.86532506
_cell_angle_alpha   102.14326485
_cell_angle_beta   93.63664529
_cell_angle_gamma   109.78804076
_symmetry_Int_Tables_number   2
_chemical_formula_structural   Al2Co(Au3S23)2
_chemical_formula_sum   'Al2 Co1 Au6 S46'
_cell_volume   1659.73343562
_cell_formula_units_Z   1
loop_
 _symmetry_equiv_pos_site_id
 _symmetry_equiv_pos_as_xyz
  1  'x, y, z'
  2  '-x, -y, -z'
loop_
 _atom_site_type_symbol
 _atom_site_label
 _atom_site_symmetry_multiplicity
 _atom_site_fract_x
 _atom_site_fract_y
 _atom_site_fract_z
 _atom_site_occupancy
  Al  Al0  2  0.12973515  0.94691934  0.79753492  1
  Co  Co1  1  0.50000000  0.50000000  0.50000000  1
  Au  Au2  2  0.00268009  0.40656024  0.59353820  1
  Au  Au3  2  0.21179263  0.33302100  0.43367473  1
  Au  Au4  2  0.39822521  0.64347213  0.70878881  1
  S  S5  2  0.00266376  0.74060490  0.09828815  1
  S  S6  2  0.02590189  0.60569439  0.15041097  1
  S  S7  2  0.08597623  0.07095737  0.14335029  1
  S  S8  2  0.13487649  0.78118447  0.71021050  1
  S  S9  2  0.14241208  0.65940149  0.28335619  1
  S  S10  2  0.15275071  0.34235452  0.02201458  1
  S  S11  2  0.16151081  0.51623464  0.47979141  1
  S  S12  2  0.16690774  0.31483736  0.59633753  1
  S  S13  2  0.17485811  0.14000653  0.39127599  1
  S  S14  2  0.17596544  0.92997618  0.50988724  1
  S  S15  2  0.21894118  0.09777245  0.74081402  1
  S  S16  2  0.23607020  0.08856539  0.26375923  1
  S  S17  2  0.25398461  0.93862227  0.93948483  1
  S  S18  2  0.27537742  0.38266397  0.28255072  1
  S  S19  2  0.31645358  0.05198897  0.61123849  1
  S  S20  2  0.35565737  0.81960843  0.72981424  1
  S  S21  2  0.35712672  0.36560537  0.97346617  1
  S  S22  2  0.36958462  0.63173072  0.87590594  1
  S  S23  2  0.38370743  0.62054790  0.52650622  1
  S  S24  2  0.43149550  0.94236829  0.87332911  1
  S  S25  2  0.45277419  0.26638241  0.02588119  1
  S  S26  2  0.48409805  0.94042206  0.35645934  1
  S  S27  2  0.48592816  0.49192660  0.33531874  1
