# generated using pymatgen
data_Al6Co2AuS46
_symmetry_space_group_name_H-M   P-1
_cell_length_a   9.90261906
_cell_length_b   12.20621103
_cell_length_c   12.77125027
_cell_angle_alpha   82.56158031
_cell_angle_beta   82.25802333
_cell_angle_gamma   77.16113202
_symmetry_Int_Tables_number   2
_chemical_formula_structural   Al6Co2AuS46
_chemical_formula_sum   'Al6 Co2 Au1 S46'
_cell_volume   1483.45648647
_cell_formula_units_Z   1
loop_
 _symmetry_equiv_pos_site_id
 _symmetry_equiv_pos_as_xyz
  1  'x, y, z'
  2  '-x, -y, -z'
loop_
 _atom_site_type_symbol
 _atom_site_label
 _atom_site_symmetry_multiplicity
 _atom_site_fract_x
 _atom_site_fract_y
 _atom_site_fract_z
 _atom_site_occupancy
  Al  Al0  2  0.15181361  0.63665871  0.57062037  1
  Al  Al1  2  0.22755688  0.33288151  0.29101178  1
  Al  Al2  2  0.34284107  0.63879046  0.34461502  1
  Co  Co3  2  0.24179456  0.96796852  0.78036840  1
  Au  Au4  1  0.00000000  0.50000000  0.50000000  1
  S  S5  2  0.02413626  0.07317831  0.83068684  1
  S  S6  2  0.03824141  0.50415141  0.31383810  1
  S  S7  2  0.03875107  0.91218906  0.80897699  1
  S  S8  2  0.04416648  0.32778508  0.95182947  1
  S  S9  2  0.05147475  0.07444413  0.34568830  1
  S  S10  2  0.06394482  0.22856746  0.38307159  1
  S  S11  2  0.13707554  0.53870884  0.73460249  1
  S  S12  2  0.14741665  0.76536104  0.37988191  1
  S  S13  2  0.17005685  0.66096046  0.96506359  1
  S  S14  2  0.19481214  0.25348160  0.04514045  1
  S  S15  2  0.25521982  0.38243739  0.11055973  1
  S  S16  2  0.26681354  0.00723777  0.60419566  1
  S  S17  2  0.27967600  0.72412589  0.05117864  1
  S  S18  2  0.28937958  0.96318083  0.94469892  1
  S  S19  2  0.29026193  0.76043875  0.49627857  1
  S  S20  2  0.33250563  0.33945683  0.44057331  1
  S  S21  2  0.33620943  0.49915309  0.48185133  1
  S  S22  2  0.35286877  0.09454147  0.68553028  1
  S  S23  2  0.39498297  0.57496206  0.17300800  1
  S  S24  2  0.39690993  0.82438117  0.72180302  1
  S  S25  2  0.41587414  0.15061753  0.26233075  1
  S  S26  2  0.47565035  0.33632431  0.76986211  1
  S  S27  2  0.48849979  0.98758870  0.92294638  1
