# generated using pymatgen
data_Al6Co2AuS46
_symmetry_space_group_name_H-M   'P 1'
_cell_length_a   9.90261906
_cell_length_b   12.20621103
_cell_length_c   12.77125027
_cell_angle_alpha   82.56158031
_cell_angle_beta   82.25802333
_cell_angle_gamma   77.16113202
_symmetry_Int_Tables_number   1
_chemical_formula_structural   Al6Co2AuS46
_chemical_formula_sum   'Al6 Co2 Au1 S46'
_cell_volume   1483.45648647
_cell_formula_units_Z   1
loop_
 _symmetry_equiv_pos_site_id
 _symmetry_equiv_pos_as_xyz
  1  'x, y, z'
loop_
 _atom_site_type_symbol
 _atom_site_label
 _atom_site_symmetry_multiplicity
 _atom_site_fract_x
 _atom_site_fract_y
 _atom_site_fract_z
 _atom_site_occupancy
  Al  Al0  1  0.65715893  0.36120954  0.65538498  1
  Al  Al1  1  0.34284107  0.63879046  0.34461502  1
  Al  Al2  1  0.77244312  0.66711849  0.70898822  1
  Al  Al3  1  0.22755688  0.33288151  0.29101178  1
  Al  Al4  1  0.15181361  0.63665871  0.57062037  1
  Al  Al5  1  0.84818639  0.36334129  0.42937963  1
  Co  Co6  1  0.75820544  0.03203148  0.21963160  1
  Co  Co7  1  0.24179456  0.96796852  0.78036840  1
  Au  Au8  1  0.00000000  0.50000000  0.50000000  1
  S  S9  1  0.66749437  0.66054317  0.55942669  1
  S  S10  1  0.33250563  0.33945683  0.44057331  1
  S  S11  1  0.96175859  0.49584859  0.68616190  1
  S  S12  1  0.03824141  0.50415141  0.31383810  1
  S  S13  1  0.85258335  0.23463896  0.62011809  1
  S  S14  1  0.14741665  0.76536104  0.37988191  1
  S  S15  1  0.60501703  0.42503794  0.82699200  1
  S  S16  1  0.39498297  0.57496206  0.17300800  1
  S  S17  1  0.93605518  0.77143254  0.61692841  1
  S  S18  1  0.06394482  0.22856746  0.38307159  1
  S  S19  1  0.66379057  0.50084691  0.51814867  1
  S  S20  1  0.33620943  0.49915309  0.48185133  1
  S  S21  1  0.47565035  0.33632431  0.76986211  1
  S  S22  1  0.52434965  0.66367569  0.23013789  1
  S  S23  1  0.39690993  0.82438117  0.72180302  1
  S  S24  1  0.60309007  0.17561883  0.27819698  1
  S  S25  1  0.74478018  0.61756261  0.88944027  1
  S  S26  1  0.25521982  0.38243739  0.11055973  1
  S  S27  1  0.58412586  0.84938247  0.73766925  1
  S  S28  1  0.41587414  0.15061753  0.26233075  1
  S  S29  1  0.29026193  0.76043875  0.49627857  1
  S  S30  1  0.70973807  0.23956125  0.50372143  1
  S  S31  1  0.13707554  0.53870884  0.73460249  1
  S  S32  1  0.86292446  0.46129116  0.26539751  1
  S  S33  1  0.71062042  0.03681917  0.05530108  1
  S  S34  1  0.28937958  0.96318083  0.94469892  1
  S  S35  1  0.73318646  0.99276223  0.39580434  1
  S  S36  1  0.26681354  0.00723777  0.60419566  1
  S  S37  1  0.64713123  0.90545853  0.31446972  1
  S  S38  1  0.35286877  0.09454147  0.68553028  1
  S  S39  1  0.97586374  0.92682169  0.16931316  1
  S  S40  1  0.02413626  0.07317831  0.83068684  1
  S  S41  1  0.96124893  0.08781094  0.19102301  1
  S  S42  1  0.03875107  0.91218906  0.80897699  1
  S  S43  1  0.82994315  0.33903954  0.03493641  1
  S  S44  1  0.17005685  0.66096046  0.96506359  1
  S  S45  1  0.94852525  0.92555587  0.65431170  1
  S  S46  1  0.05147475  0.07444413  0.34568830  1
  S  S47  1  0.19481214  0.25348160  0.04514045  1
  S  S48  1  0.80518786  0.74651840  0.95485955  1
  S  S49  1  0.04416648  0.32778508  0.95182947  1
  S  S50  1  0.95583352  0.67221492  0.04817053  1
  S  S51  1  0.27967600  0.72412589  0.05117864  1
  S  S52  1  0.72032400  0.27587411  0.94882136  1
  S  S53  1  0.48849979  0.98758870  0.92294638  1
  S  S54  1  0.51150021  0.01241130  0.07705362  1
