# generated using pymatgen
data_Al6Co(AuS23)2
_symmetry_space_group_name_H-M   'P 1'
_cell_length_a   11.08522067
_cell_length_b   10.97201838
_cell_length_c   14.50712988
_cell_angle_alpha   83.38229005
_cell_angle_beta   70.46796827
_cell_angle_gamma   82.00321635
_symmetry_Int_Tables_number   1
_chemical_formula_structural   Al6Co(AuS23)2
_chemical_formula_sum   'Al6 Co1 Au2 S46'
_cell_volume   1642.28351029
_cell_formula_units_Z   1
loop_
 _symmetry_equiv_pos_site_id
 _symmetry_equiv_pos_as_xyz
  1  'x, y, z'
loop_
 _atom_site_type_symbol
 _atom_site_label
 _atom_site_symmetry_multiplicity
 _atom_site_fract_x
 _atom_site_fract_y
 _atom_site_fract_z
 _atom_site_occupancy
  Al  Al0  1  0.69784199  0.55423978  0.63252479  1
  Al  Al1  1  0.30215801  0.44576022  0.36747521  1
  Al  Al2  1  0.53854229  0.30541970  0.68152934  1
  Al  Al3  1  0.46145771  0.69458030  0.31847066  1
  Al  Al4  1  0.30289620  0.31917120  0.58651079  1
  Al  Al5  1  0.69710380  0.68082880  0.41348921  1
  Co  Co6  1  0.50000000  0.50000000  0.50000000  1
  Au  Au7  1  0.97556761  0.02908533  0.25661519  1
  Au  Au8  1  0.02443239  0.97091467  0.74338481  1
  S  S9  1  0.67582037  0.38631403  0.51516773  1
  S  S10  1  0.32417963  0.61368597  0.48483227  1
  S  S11  1  0.38284945  0.45067066  0.65770899  1
  S  S12  1  0.61715055  0.54932934  0.34229101  1
  S  S13  1  0.54586979  0.66534073  0.56686383  1
  S  S14  1  0.45413021  0.33465927  0.43313617  1
  S  S15  1  0.59453632  0.49699609  0.81174969  1
  S  S16  1  0.40546368  0.50300391  0.18825031  1
  S  S17  1  0.46519149  0.13775024  0.63281720  1
  S  S18  1  0.53480851  0.86224976  0.36718280  1
  S  S19  1  0.82796596  0.50613812  0.47560464  1
  S  S20  1  0.17203404  0.49386188  0.52439536  1
  S  S21  1  0.79439753  0.69978023  0.67790722  1
  S  S22  1  0.20560247  0.30021977  0.32209278  1
  S  S23  1  0.80108958  0.37564359  0.71157898  1
  S  S24  1  0.19891042  0.62435641  0.28842102  1
  S  S25  1  0.48869757  0.35551499  0.84744193  1
  S  S26  1  0.51130243  0.64448501  0.15255807  1
  S  S27  1  0.72486119  0.21878359  0.72062367  1
  S  S28  1  0.27513881  0.78121641  0.27937633  1
  S  S29  1  0.23015671  0.13009224  0.51625350  1
  S  S30  1  0.76984329  0.86990776  0.48374650  1
  S  S31  1  0.12780637  0.29011399  0.73149723  1
  S  S32  1  0.87219363  0.70988601  0.26850277  1
  S  S33  1  0.12562900  0.02890635  0.09735749  1
  S  S34  1  0.87437100  0.97109365  0.90264251  1
  S  S35  1  0.83192267  0.03140180  0.41603455  1
  S  S36  1  0.16807733  0.96859820  0.58396545  1
  S  S37  1  0.09393243  0.24783054  0.46111120  1
  S  S38  1  0.90606757  0.75216946  0.53888880  1
  S  S39  1  0.77178342  0.22579177  0.20253115  1
  S  S40  1  0.22821658  0.77420823  0.79746885  1
  S  S41  1  0.82176876  0.86275820  0.19286746  1
  S  S42  1  0.17823124  0.13724180  0.80713254  1
  S  S43  1  0.19173198  0.68467021  0.03126055  1
  S  S44  1  0.80826802  0.31532979  0.96873945  1
  S  S45  1  0.37463924  0.11438353  0.78470269  1
  S  S46  1  0.62536076  0.88561647  0.21529731  1
  S  S47  1  0.75309789  0.70670120  0.93251652  1
  S  S48  1  0.24690211  0.29329880  0.06748348  1
  S  S49  1  0.92320845  0.67593415  0.93714976  1
  S  S50  1  0.07679155  0.32406585  0.06285024  1
  S  S51  1  0.71956164  0.22159622  0.08780400  1
  S  S52  1  0.28043836  0.77840378  0.91219600  1
  S  S53  1  0.71372185  0.90716687  0.90952654  1
  S  S54  1  0.28627815  0.09283313  0.09047346  1
