# generated using pymatgen
data_Al6Co(AuS23)2
_symmetry_space_group_name_H-M   P-1
_cell_length_a   10.97201838
_cell_length_b   11.08522067
_cell_length_c   14.50712988
_cell_angle_alpha   70.46796827
_cell_angle_beta   83.38229005
_cell_angle_gamma   82.00321635
_symmetry_Int_Tables_number   2
_chemical_formula_structural   Al6Co(AuS23)2
_chemical_formula_sum   'Al6 Co1 Au2 S46'
_cell_volume   1642.28351029
_cell_formula_units_Z   1
loop_
 _symmetry_equiv_pos_site_id
 _symmetry_equiv_pos_as_xyz
  1  'x, y, z'
  2  '-x, -y, -z'
loop_
 _atom_site_type_symbol
 _atom_site_label
 _atom_site_symmetry_multiplicity
 _atom_site_fract_x
 _atom_site_fract_y
 _atom_site_fract_z
 _atom_site_occupancy
  Al  Al0  2  0.30541970  0.53854229  0.68152934  1
  Al  Al1  2  0.31917120  0.30289620  0.58651079  1
  Al  Al2  2  0.44576022  0.30215801  0.36747521  1
  Co  Co3  1  0.50000000  0.50000000  0.50000000  1
  Au  Au4  2  0.02908533  0.97556761  0.25661519  1
  S  S5  2  0.02890635  0.12562900  0.09735749  1
  S  S6  2  0.03140180  0.83192267  0.41603455  1
  S  S7  2  0.09283313  0.28627815  0.09047346  1
  S  S8  2  0.11438353  0.37463924  0.78470269  1
  S  S9  2  0.13009224  0.23015671  0.51625350  1
  S  S10  2  0.13724180  0.17823124  0.80713254  1
  S  S11  2  0.13775024  0.46519149  0.63281720  1
  S  S12  2  0.21878359  0.72486119  0.72062367  1
  S  S13  2  0.22159622  0.71956164  0.08780400  1
  S  S14  2  0.22579177  0.77178342  0.20253115  1
  S  S15  2  0.24783054  0.09393243  0.46111120  1
  S  S16  2  0.29011399  0.12780637  0.73149723  1
  S  S17  2  0.29329880  0.24690211  0.06748348  1
  S  S18  2  0.30021977  0.20560247  0.32209278  1
  S  S19  2  0.31532979  0.80826802  0.96873945  1
  S  S20  2  0.32406585  0.07679155  0.06285024  1
  S  S21  2  0.33465927  0.45413021  0.43313617  1
  S  S22  2  0.35551499  0.48869757  0.84744193  1
  S  S23  2  0.37564359  0.80108958  0.71157898  1
  S  S24  2  0.38631403  0.67582037  0.51516773  1
  S  S25  2  0.45067066  0.38284945  0.65770899  1
  S  S26  2  0.49386188  0.17203404  0.52439536  1
  S  S27  2  0.49699609  0.59453632  0.81174969  1
