# generated using pymatgen
data_AlCo6(AuS23)2
_symmetry_space_group_name_H-M   P-1
_cell_length_a   9.72864617
_cell_length_b   9.89450528
_cell_length_c   15.65595366
_cell_angle_alpha   85.13365037
_cell_angle_beta   76.67697787
_cell_angle_gamma   67.96371652
_symmetry_Int_Tables_number   2
_chemical_formula_structural   AlCo6(AuS23)2
_chemical_formula_sum   'Al1 Co6 Au2 S46'
_cell_volume   1359.35014792
_cell_formula_units_Z   1
loop_
 _symmetry_equiv_pos_site_id
 _symmetry_equiv_pos_as_xyz
  1  'x, y, z'
  2  '-x, -y, -z'
loop_
 _atom_site_type_symbol
 _atom_site_label
 _atom_site_symmetry_multiplicity
 _atom_site_fract_x
 _atom_site_fract_y
 _atom_site_fract_z
 _atom_site_occupancy
  Al  Al0  1  0.50000000  0.50000000  0.50000000  1
  Co  Co1  2  0.29182423  0.57161740  0.69836364  1
  Co  Co2  2  0.31251036  0.27730855  0.58195917  1
  Co  Co3  2  0.46658213  0.77932563  0.61814705  1
  Au  Au4  2  0.02687650  0.01214050  0.72659935  1
  S  S5  2  0.01723692  0.40314830  0.75406193  1
  S  S6  2  0.02828921  0.82735862  0.39901740  1
  S  S7  2  0.04398079  0.69051236  0.89628674  1
  S  S8  2  0.07056152  0.75322388  0.76579347  1
  S  S9  2  0.12096542  0.25185929  0.52696753  1
  S  S10  2  0.14187018  0.48422444  0.65097499  1
  S  S11  2  0.15584306  0.15376222  0.03887225  1
  S  S12  2  0.18331825  0.25981966  0.80968668  1
  S  S13  2  0.22510262  0.10403783  0.40681307  1
  S  S14  2  0.24144582  0.85240089  0.20774356  1
  S  S15  2  0.24930977  0.74963084  0.09875671  1
  S  S16  2  0.29314839  0.94258759  0.71156259  1
  S  S17  2  0.29915584  0.70586643  0.57735695  1
  S  S18  2  0.32736553  0.13386046  0.10102736  1
  S  S19  2  0.33688127  0.40642793  0.45554196  1
  S  S20  2  0.33903622  0.13672731  0.69955778  1
  S  S21  2  0.34095567  0.82153738  0.97734924  1
  S  S22  2  0.35280992  0.18808865  0.32091420  1
  S  S23  2  0.35903158  0.47953871  0.82209657  1
  S  S24  2  0.42570216  0.28916216  0.05964542  1
  S  S25  2  0.46829183  0.36565145  0.62934366  1
  S  S26  2  0.48102307  0.59462000  0.76171539  1
  S  S27  2  0.48174029  0.89778964  0.49486215  1
