# generated using pymatgen
data_AlCo6(AuS23)2
_symmetry_space_group_name_H-M   'P 1'
_cell_length_a   9.72864617
_cell_length_b   9.89450528
_cell_length_c   15.65595366
_cell_angle_alpha   85.13365037
_cell_angle_beta   76.67697787
_cell_angle_gamma   67.96371652
_symmetry_Int_Tables_number   1
_chemical_formula_structural   AlCo6(AuS23)2
_chemical_formula_sum   'Al1 Co6 Au2 S46'
_cell_volume   1359.35014792
_cell_formula_units_Z   1
loop_
 _symmetry_equiv_pos_site_id
 _symmetry_equiv_pos_as_xyz
  1  'x, y, z'
loop_
 _atom_site_type_symbol
 _atom_site_label
 _atom_site_symmetry_multiplicity
 _atom_site_fract_x
 _atom_site_fract_y
 _atom_site_fract_z
 _atom_site_occupancy
  Al  Al0  1  0.50000000  0.50000000  0.50000000  1
  Co  Co1  1  0.53341787  0.22067437  0.38185295  1
  Co  Co2  1  0.46658213  0.77932563  0.61814705  1
  Co  Co3  1  0.70817577  0.42838260  0.30163636  1
  Co  Co4  1  0.29182423  0.57161740  0.69836364  1
  Co  Co5  1  0.68748964  0.72269145  0.41804083  1
  Co  Co6  1  0.31251036  0.27730855  0.58195917  1
  Au  Au7  1  0.02687650  0.01214050  0.72659935  1
  Au  Au8  1  0.97312350  0.98785950  0.27340065  1
  S  S9  1  0.70084416  0.29413357  0.42264305  1
  S  S10  1  0.29915584  0.70586643  0.57735695  1
  S  S11  1  0.53170817  0.63434855  0.37065634  1
  S  S12  1  0.46829183  0.36565145  0.62934366  1
  S  S13  1  0.33688127  0.40642793  0.45554196  1
  S  S14  1  0.66311873  0.59357207  0.54445804  1
  S  S15  1  0.51897693  0.40538000  0.23828461  1
  S  S16  1  0.48102307  0.59462000  0.76171539  1
  S  S17  1  0.85812982  0.51577556  0.34902501  1
  S  S18  1  0.14187018  0.48422444  0.65097499  1
  S  S19  1  0.51825971  0.10221036  0.50513785  1
  S  S20  1  0.48174029  0.89778964  0.49486215  1
  S  S21  1  0.35280992  0.18808865  0.32091420  1
  S  S22  1  0.64719008  0.81191135  0.67908580  1
  S  S23  1  0.70685161  0.05741241  0.28843741  1
  S  S24  1  0.29314839  0.94258759  0.71156259  1
  S  S25  1  0.64096842  0.52046129  0.17790343  1
  S  S26  1  0.35903158  0.47953871  0.82209657  1
  S  S27  1  0.92943848  0.24677612  0.23420653  1
  S  S28  1  0.07056152  0.75322388  0.76579347  1
  S  S29  1  0.87903458  0.74814071  0.47303247  1
  S  S30  1  0.12096542  0.25185929  0.52696753  1
  S  S31  1  0.66096378  0.86327269  0.30044222  1
  S  S32  1  0.33903622  0.13672731  0.69955778  1
  S  S33  1  0.84415694  0.84623778  0.96112775  1
  S  S34  1  0.15584306  0.15376222  0.03887225  1
  S  S35  1  0.97171079  0.17264138  0.60098260  1
  S  S36  1  0.02828921  0.82735862  0.39901740  1
  S  S37  1  0.77489738  0.89596217  0.59318693  1
  S  S38  1  0.22510262  0.10403783  0.40681307  1
  S  S39  1  0.75855418  0.14759911  0.79225644  1
  S  S40  1  0.24144582  0.85240089  0.20774356  1
  S  S41  1  0.18331825  0.25981966  0.80968668  1
  S  S42  1  0.81668175  0.74018034  0.19031332  1
  S  S43  1  0.34095567  0.82153738  0.97734924  1
  S  S44  1  0.65904433  0.17846262  0.02265076  1
  S  S45  1  0.98276308  0.59685170  0.24593807  1
  S  S46  1  0.01723692  0.40314830  0.75406193  1
  S  S47  1  0.42570216  0.28916216  0.05964542  1
  S  S48  1  0.57429784  0.71083784  0.94035458  1
  S  S49  1  0.32736553  0.13386046  0.10102736  1
  S  S50  1  0.67263447  0.86613954  0.89897264  1
  S  S51  1  0.75069023  0.25036916  0.90124329  1
  S  S52  1  0.24930977  0.74963084  0.09875671  1
  S  S53  1  0.95601921  0.30948764  0.10371326  1
  S  S54  1  0.04398079  0.69051236  0.89628674  1
