# generated using pymatgen
data_AlCo2(Au3S23)2
_symmetry_space_group_name_H-M   P-1
_cell_length_a   9.15821160
_cell_length_b   12.39310897
_cell_length_c   14.15023078
_cell_angle_alpha   92.63414627
_cell_angle_beta   103.58432385
_cell_angle_gamma   94.76105613
_symmetry_Int_Tables_number   2
_chemical_formula_structural   AlCo2(Au3S23)2
_chemical_formula_sum   'Al1 Co2 Au6 S46'
_cell_volume   1552.16257907
_cell_formula_units_Z   1
loop_
 _symmetry_equiv_pos_site_id
 _symmetry_equiv_pos_as_xyz
  1  'x, y, z'
  2  '-x, -y, -z'
loop_
 _atom_site_type_symbol
 _atom_site_label
 _atom_site_symmetry_multiplicity
 _atom_site_fract_x
 _atom_site_fract_y
 _atom_site_fract_z
 _atom_site_occupancy
  Al  Al0  1  0.00000000  0.50000000  0.50000000  1
  Co  Co1  2  0.23841035  0.25187215  0.05160921  1
  Au  Au2  2  0.14575955  0.43136937  0.35769777  1
  Au  Au3  2  0.24998330  0.71215708  0.64529570  1
  Au  Au4  2  0.35352769  0.63426844  0.44871803  1
  S  S5  2  0.04085998  0.06197794  0.62599511  1
  S  S6  2  0.05792295  0.69417871  0.49503356  1
  S  S7  2  0.06138831  0.23685651  0.13359188  1
  S  S8  2  0.12755024  0.13461473  0.91849285  1
  S  S9  2  0.12845109  0.71693198  0.96170721  1
  S  S10  2  0.12943508  0.28145943  0.45124932  1
  S  S11  2  0.15039964  0.57898151  0.25735686  1
  S  S12  2  0.16717807  0.00124316  0.35179983  1
  S  S13  2  0.19524818  0.40607009  0.98922407  1
  S  S14  2  0.21308819  0.99231267  0.71909034  1
  S  S15  2  0.21951559  0.51233290  0.63478944  1
  S  S16  2  0.23591981  0.62070818  0.89308366  1
  S  S17  2  0.23594038  0.88915054  0.27046408  1
  S  S18  2  0.27038532  0.07556760  0.02978111  1
  S  S19  2  0.31439627  0.90281465  0.63544666  1
  S  S20  2  0.31636720  0.58306827  0.18841386  1
  S  S21  2  0.38171386  0.35544557  0.96697033  1
  S  S22  2  0.39158988  0.31021449  0.19617696  1
  S  S23  2  0.40599954  0.73537961  0.80953193  1
  S  S24  2  0.40788015  0.51695811  0.57661939  1
  S  S25  2  0.40973257  0.79246148  0.36598108  1
  S  S26  2  0.49132208  0.72624594  0.26262563  1
  S  S27  2  0.49299560  0.08373730  0.01471036  1
