# generated using pymatgen
data_AlCo2(Au3S23)2
_symmetry_space_group_name_H-M   'P 1'
_cell_length_a   9.15821160
_cell_length_b   12.39310897
_cell_length_c   14.94075916
_cell_angle_alpha   95.41697804
_cell_angle_beta   67.01316478
_cell_angle_gamma   94.76105613
_symmetry_Int_Tables_number   1
_chemical_formula_structural   AlCo2(Au3S23)2
_chemical_formula_sum   'Al1 Co2 Au6 S46'
_cell_volume   1552.16257907
_cell_formula_units_Z   1
loop_
 _symmetry_equiv_pos_site_id
 _symmetry_equiv_pos_as_xyz
  1  'x, y, z'
loop_
 _atom_site_type_symbol
 _atom_site_label
 _atom_site_symmetry_multiplicity
 _atom_site_fract_x
 _atom_site_fract_y
 _atom_site_fract_z
 _atom_site_occupancy
  Al  Al0  1  0.50000000  0.50000000  0.50000000  1
  Co  Co1  1  0.18680114  0.25187215  0.05160921  1
  Co  Co2  1  0.81319886  0.74812785  0.94839079  1
  Au  Au3  1  0.90480966  0.63426844  0.44871803  1
  Au  Au4  1  0.09519034  0.36573156  0.55128197  1
  Au  Au5  1  0.60468760  0.71215708  0.64529570  1
  Au  Au6  1  0.39531240  0.28784292  0.35470430  1
  Au  Au7  1  0.21193822  0.56863063  0.64230223  1
  Au  Au8  1  0.78806178  0.43136937  0.35769777  1
  S  S9  1  0.58472616  0.51233290  0.63478944  1
  S  S10  1  0.41527384  0.48766710  0.36521056  1
  S  S11  1  0.56288939  0.69417871  0.49503356  1
  S  S12  1  0.43711061  0.30582129  0.50496644  1
  S  S13  1  0.89304278  0.57898151  0.25735686  1
  S  S14  1  0.10695722  0.42101849  0.74264314  1
  S  S15  1  0.04375149  0.79246148  0.36598108  1
  S  S16  1  0.95624851  0.20753852  0.63401892  1
  S  S17  1  0.34283615  0.62070818  0.89308366  1
  S  S18  1  0.65716385  0.37929182  0.10691634  1
  S  S19  1  0.83126076  0.51695811  0.57661939  1
  S  S20  1  0.16873924  0.48304189  0.42338061  1
  S  S21  1  0.22869645  0.72624594  0.26262563  1
  S  S22  1  0.77130355  0.27375406  0.73737437  1
  S  S23  1  0.80458708  0.68978551  0.80382304  1
  S  S24  1  0.19541292  0.31021449  0.19617696  1
  S  S25  1  0.67894962  0.90281465  0.63544666  1
  S  S26  1  0.32105038  0.09718535  0.36455334  1
  S  S27  1  0.59646760  0.73537961  0.80953193  1
  S  S28  1  0.40353240  0.26462039  0.19046807  1
  S  S29  1  0.87204666  0.41693173  0.81158614  1
  S  S30  1  0.12795334  0.58306827  0.18841386  1
  S  S31  1  0.32181425  0.71854057  0.54875068  1
  S  S32  1  0.67818575  0.28145943  0.45124932  1
  S  S33  1  0.24060420  0.07556760  0.02978111  1
  S  S34  1  0.75939580  0.92443240  0.97021889  1
  S  S35  1  0.20602411  0.40607009  0.98922407  1
  S  S36  1  0.79397589  0.59392991  0.01077593  1
  S  S37  1  0.41474353  0.35544557  0.96697033  1
  S  S38  1  0.58525647  0.64455443  0.03302967  1
  S  S39  1  0.20905739  0.13461473  0.91849285  1
  S  S40  1  0.79094261  0.86538527  0.08150715  1
  S  S41  1  0.92779643  0.23685651  0.13359188  1
  S  S42  1  0.07220357  0.76314349  0.86640812  1
  S  S43  1  0.81537824  0.00124316  0.35179983  1
  S  S44  1  0.18462176  0.99875684  0.64820017  1
  S  S45  1  0.16674388  0.71693198  0.96170721  1
  S  S46  1  0.83325612  0.28306802  0.03829279  1
  S  S47  1  0.50600215  0.00768733  0.28090966  1
  S  S48  1  0.49399785  0.99231267  0.71909034  1
  S  S49  1  0.58513513  0.93802206  0.37400489  1
  S  S50  1  0.41486487  0.06197794  0.62599511  1
  S  S51  1  0.03452370  0.11084946  0.72953592  1
  S  S52  1  0.96547630  0.88915054  0.27046408  1
  S  S53  1  0.52171475  0.91626270  0.98528964  1
  S  S54  1  0.47828525  0.08373730  0.01471036  1
