# generated using pymatgen
data_As3Pb2ClO6
_symmetry_space_group_name_H-M   'P 1'
_cell_length_a   5.46818150
_cell_length_b   8.38218227
_cell_length_c   19.80731438
_cell_angle_alpha   90.00000000
_cell_angle_beta   90.00000000
_cell_angle_gamma   90.00000000
_symmetry_Int_Tables_number   1
_chemical_formula_structural   As3Pb2ClO6
_chemical_formula_sum   'As12 Pb8 Cl4 O24'
_cell_volume   907.87407818
_cell_formula_units_Z   4
loop_
 _symmetry_equiv_pos_site_id
 _symmetry_equiv_pos_as_xyz
  1  'x, y, z'
loop_
 _atom_site_type_symbol
 _atom_site_label
 _atom_site_symmetry_multiplicity
 _atom_site_fract_x
 _atom_site_fract_y
 _atom_site_fract_z
 _atom_site_occupancy
  As  As0  1  0.25000000  0.75952978  0.16794805  1
  As  As1  1  0.25000000  0.74047022  0.66794805  1
  As  As2  1  0.75000000  0.24047022  0.83205195  1
  As  As3  1  0.75000000  0.25952978  0.33205195  1
  As  As4  1  0.25000000  0.46022518  0.32142756  1
  As  As5  1  0.25000000  0.03977482  0.82142756  1
  As  As6  1  0.75000000  0.53977482  0.67857244  1
  As  As7  1  0.75000000  0.96022518  0.17857244  1
  As  As8  1  0.25000000  0.68490490  0.45558458  1
  As  As9  1  0.25000000  0.81509510  0.95558458  1
  As  As10  1  0.75000000  0.31509510  0.54441542  1
  As  As11  1  0.75000000  0.18490490  0.04441542  1
  Pb  Pb12  1  0.25000000  0.11174314  0.44126032  1
  Pb  Pb13  1  0.25000000  0.38825686  0.94126032  1
  Pb  Pb14  1  0.75000000  0.88825686  0.55873968  1
  Pb  Pb15  1  0.75000000  0.61174314  0.05873968  1
  Pb  Pb16  1  0.25000000  0.34173877  0.14201051  1
  Pb  Pb17  1  0.25000000  0.15826123  0.64201051  1
  Pb  Pb18  1  0.75000000  0.65826123  0.85798949  1
  Pb  Pb19  1  0.75000000  0.84173877  0.35798949  1
  Cl  Cl20  1  0.25000000  0.45239922  0.78626553  1
  Cl  Cl21  1  0.25000000  0.04760078  0.28626553  1
  Cl  Cl22  1  0.75000000  0.54760078  0.21373447  1
  Cl  Cl23  1  0.75000000  0.95239922  0.71373447  1
  O  O24  1  0.25000000  0.89263686  0.60536876  1
  O  O25  1  0.25000000  0.60736314  0.10536876  1
  O  O26  1  0.75000000  0.10736314  0.39463124  1
  O  O27  1  0.75000000  0.39263686  0.89463124  1
  O  O28  1  0.25000000  0.65505607  0.36084914  1
  O  O29  1  0.25000000  0.84494393  0.86084914  1
  O  O30  1  0.75000000  0.34494393  0.63915086  1
  O  O31  1  0.75000000  0.15505607  0.13915086  1
  O  O32  1  0.49693968  0.37561092  0.37375975  1
  O  O33  1  0.00306032  0.12438908  0.87375975  1
  O  O34  1  0.99693968  0.62438908  0.62624025  1
  O  O35  1  0.50306032  0.87561092  0.12624025  1
  O  O36  1  0.50306032  0.62438908  0.62624025  1
  O  O37  1  0.99693968  0.87561092  0.12624025  1
  O  O38  1  0.00306032  0.37561092  0.37375975  1
  O  O39  1  0.49693968  0.12438908  0.87375975  1
  O  O40  1  0.00826996  0.82979896  0.45354610  1
  O  O41  1  0.49173004  0.67020104  0.95354610  1
  O  O42  1  0.50826996  0.17020104  0.54645390  1
  O  O43  1  0.99173004  0.32979896  0.04645390  1
  O  O44  1  0.99173004  0.17020104  0.54645390  1
  O  O45  1  0.50826996  0.32979896  0.04645390  1
  O  O46  1  0.49173004  0.82979896  0.45354610  1
  O  O47  1  0.00826996  0.67020104  0.95354610  1
