# generated using pymatgen
data_As3Pb5ClO9
_symmetry_space_group_name_H-M   'P 1'
_cell_length_a   7.07119718
_cell_length_b   10.60428871
_cell_length_c   10.60428871
_cell_angle_alpha   120.00000000
_cell_angle_beta   90.00000000
_cell_angle_gamma   90.00000000
_symmetry_Int_Tables_number   1
_chemical_formula_structural   As3Pb5ClO9
_chemical_formula_sum   'As6 Pb10 Cl2 O18'
_cell_volume   688.63115402
_cell_formula_units_Z   2
loop_
 _symmetry_equiv_pos_site_id
 _symmetry_equiv_pos_as_xyz
  1  'x, y, z'
loop_
 _atom_site_type_symbol
 _atom_site_label
 _atom_site_symmetry_multiplicity
 _atom_site_fract_x
 _atom_site_fract_y
 _atom_site_fract_z
 _atom_site_occupancy
  As  As0  1  0.75000000  0.98555855  0.58548320  1
  As  As1  1  0.75000000  0.59992465  0.01444145  1
  As  As2  1  0.75000000  0.41451680  0.40007535  1
  As  As3  1  0.25000000  0.01444145  0.41451680  1
  As  As4  1  0.25000000  0.40007535  0.98555855  1
  As  As5  1  0.25000000  0.58548320  0.59992465  1
  Pb  Pb6  1  0.01116176  0.33333333  0.66666667  1
  Pb  Pb7  1  0.51116176  0.66666667  0.33333333  1
  Pb  Pb8  1  0.98883824  0.66666667  0.33333333  1
  Pb  Pb9  1  0.48883824  0.33333333  0.66666667  1
  Pb  Pb10  1  0.75000000  0.77364376  0.73221797  1
  Pb  Pb11  1  0.75000000  0.95857421  0.22635624  1
  Pb  Pb12  1  0.75000000  0.26778203  0.04142579  1
  Pb  Pb13  1  0.25000000  0.22635624  0.26778203  1
  Pb  Pb14  1  0.25000000  0.04142579  0.77364376  1
  Pb  Pb15  1  0.25000000  0.73221797  0.95857421  1
  Cl  Cl16  1  0.00000000  0.00000000  0.00000000  1
  Cl  Cl17  1  0.50000000  0.00000000  0.00000000  1
  O  O18  1  0.75000000  0.85098994  0.38768357  1
  O  O19  1  0.75000000  0.53669363  0.14901006  1
  O  O20  1  0.75000000  0.61231643  0.46330637  1
  O  O21  1  0.25000000  0.14901006  0.61231643  1
  O  O22  1  0.25000000  0.46330637  0.85098994  1
  O  O23  1  0.25000000  0.38768357  0.53669363  1
  O  O24  1  0.94399498  0.90633516  0.62915479  1
  O  O25  1  0.94399498  0.72281963  0.09366484  1
  O  O26  1  0.94399498  0.37084521  0.27718037  1
  O  O27  1  0.44399498  0.09366484  0.37084521  1
  O  O28  1  0.44399498  0.27718037  0.90633516  1
  O  O29  1  0.44399498  0.62915479  0.72281963  1
  O  O30  1  0.05600502  0.09366484  0.37084521  1
  O  O31  1  0.05600502  0.27718037  0.90633516  1
  O  O32  1  0.05600502  0.62915479  0.72281963  1
  O  O33  1  0.55600502  0.90633516  0.62915479  1
  O  O34  1  0.55600502  0.72281963  0.09366484  1
  O  O35  1  0.55600502  0.37084521  0.27718037  1
