# generated using pymatgen
data_As3Pb2ClO6
_symmetry_space_group_name_H-M   Pnma
_cell_length_a   19.80731438
_cell_length_b   5.46818150
_cell_length_c   8.38218227
_cell_angle_alpha   90.00000000
_cell_angle_beta   90.00000000
_cell_angle_gamma   90.00000000
_symmetry_Int_Tables_number   62
_chemical_formula_structural   As3Pb2ClO6
_chemical_formula_sum   'As12 Pb8 Cl4 O24'
_cell_volume   907.87407818
_cell_formula_units_Z   4
loop_
 _symmetry_equiv_pos_site_id
 _symmetry_equiv_pos_as_xyz
  1  'x, y, z'
  2  '-x, -y, -z'
  3  '-x+1/2, -y, z+1/2'
  4  'x+1/2, y, -z+1/2'
  5  'x+1/2, -y+1/2, -z+1/2'
  6  '-x+1/2, y+1/2, z+1/2'
  7  '-x, y+1/2, -z'
  8  'x, -y+1/2, z'
loop_
 _atom_site_type_symbol
 _atom_site_label
 _atom_site_symmetry_multiplicity
 _atom_site_fract_x
 _atom_site_fract_y
 _atom_site_fract_z
 _atom_site_occupancy
  As  As0  4  0.04441542  0.75000000  0.18490490  1
  As  As1  4  0.16794805  0.25000000  0.75952978  1
  As  As2  4  0.17857244  0.75000000  0.96022518  1
  Pb  Pb3  4  0.05873968  0.75000000  0.61174314  1
  Pb  Pb4  4  0.14201051  0.25000000  0.34173877  1
  Cl  Cl5  4  0.21373447  0.75000000  0.54760078  1
  O  O6  8  0.04645390  0.50826996  0.32979896  1
  O  O7  8  0.12624025  0.50306032  0.87561092  1
  O  O8  4  0.10536876  0.25000000  0.60736314  1
  O  O9  4  0.13915086  0.75000000  0.15505607  1
