# generated using pymatgen
data_AsPb2ClO4
_symmetry_space_group_name_H-M   'P 1'
_cell_length_a   6.76403592
_cell_length_b   7.70451468
_cell_length_c   11.71967701
_cell_angle_alpha   90.00000000
_cell_angle_beta   90.00000000
_cell_angle_gamma   90.00000000
_symmetry_Int_Tables_number   1
_chemical_formula_structural   AsPb2ClO4
_chemical_formula_sum   'As4 Pb8 Cl4 O16'
_cell_volume   610.75472423
_cell_formula_units_Z   4
loop_
 _symmetry_equiv_pos_site_id
 _symmetry_equiv_pos_as_xyz
  1  'x, y, z'
loop_
 _atom_site_type_symbol
 _atom_site_label
 _atom_site_symmetry_multiplicity
 _atom_site_fract_x
 _atom_site_fract_y
 _atom_site_fract_z
 _atom_site_occupancy
  As  As0  1  0.12708423  0.75000000  0.50000000  1
  As  As1  1  0.87291577  0.25000000  0.00000000  1
  As  As2  1  0.87291577  0.25000000  0.50000000  1
  As  As3  1  0.12708423  0.75000000  0.00000000  1
  Pb  Pb4  1  0.61861631  0.75000000  0.50000000  1
  Pb  Pb5  1  0.38138369  0.25000000  0.00000000  1
  Pb  Pb6  1  0.38138369  0.25000000  0.50000000  1
  Pb  Pb7  1  0.61861631  0.75000000  0.00000000  1
  Pb  Pb8  1  0.14089934  0.52897315  0.75000000  1
  Pb  Pb9  1  0.85910066  0.47102685  0.25000000  1
  Pb  Pb10  1  0.14089934  0.97102685  0.25000000  1
  Pb  Pb11  1  0.85910066  0.02897315  0.75000000  1
  Cl  Cl12  1  0.50717572  0.80473045  0.75000000  1
  Cl  Cl13  1  0.49282428  0.19526955  0.25000000  1
  Cl  Cl14  1  0.50717572  0.69526955  0.25000000  1
  Cl  Cl15  1  0.49282428  0.30473045  0.75000000  1
  O  O16  1  0.02374883  0.27183096  0.88174215  1
  O  O17  1  0.97625117  0.72816904  0.38174215  1
  O  O18  1  0.02374883  0.22816904  0.11825785  1
  O  O19  1  0.97625117  0.77183096  0.61825785  1
  O  O20  1  0.97625117  0.72816904  0.11825785  1
  O  O21  1  0.02374883  0.27183096  0.61825785  1
  O  O22  1  0.97625117  0.77183096  0.88174215  1
  O  O23  1  0.02374883  0.22816904  0.38174215  1
  O  O24  1  0.71596342  0.42224540  0.02939520  1
  O  O25  1  0.28403658  0.57775460  0.52939520  1
  O  O26  1  0.71596342  0.07775460  0.97060480  1
  O  O27  1  0.28403658  0.92224540  0.47060480  1
  O  O28  1  0.28403658  0.57775460  0.97060480  1
  O  O29  1  0.71596342  0.42224540  0.47060480  1
  O  O30  1  0.28403658  0.92224540  0.02939520  1
  O  O31  1  0.71596342  0.07775460  0.52939520  1
