# generated using pymatgen
data_AsPb2ClO4
_symmetry_space_group_name_H-M   Pbcm
_cell_length_a   6.76403592
_cell_length_b   7.70451468
_cell_length_c   11.71967701
_cell_angle_alpha   90.00000000
_cell_angle_beta   90.00000000
_cell_angle_gamma   90.00000000
_symmetry_Int_Tables_number   57
_chemical_formula_structural   AsPb2ClO4
_chemical_formula_sum   'As4 Pb8 Cl4 O16'
_cell_volume   610.75472423
_cell_formula_units_Z   4
loop_
 _symmetry_equiv_pos_site_id
 _symmetry_equiv_pos_as_xyz
  1  'x, y, z'
  2  '-x, -y, -z'
  3  '-x, -y, z+1/2'
  4  'x, y, -z+1/2'
  5  'x, -y+1/2, -z'
  6  '-x, y+1/2, z'
  7  '-x, y+1/2, -z+1/2'
  8  'x, -y+1/2, z+1/2'
loop_
 _atom_site_type_symbol
 _atom_site_label
 _atom_site_symmetry_multiplicity
 _atom_site_fract_x
 _atom_site_fract_y
 _atom_site_fract_z
 _atom_site_occupancy
  As  As0  4  0.12708423  0.75000000  0.00000000  1
  Pb  Pb1  4  0.14089934  0.52897315  0.75000000  1
  Pb  Pb2  4  0.38138369  0.25000000  0.00000000  1
  Cl  Cl3  4  0.49282428  0.19526955  0.25000000  1
  O  O4  8  0.02374883  0.22816904  0.11825785  1
  O  O5  8  0.28403658  0.57775460  0.52939520  1
