# generated using pymatgen
data_Cu6Bi(PbS22)2
_symmetry_space_group_name_H-M   P-1
_cell_length_a   10.01902924
_cell_length_b   11.33081309
_cell_length_c   13.71723723
_cell_angle_alpha   102.81198207
_cell_angle_beta   95.76194507
_cell_angle_gamma   94.93556909
_symmetry_Int_Tables_number   2
_chemical_formula_structural   Cu6Bi(PbS22)2
_chemical_formula_sum   'Cu6 Bi1 Pb2 S44'
_cell_volume   1501.34765148
_cell_formula_units_Z   1
loop_
 _symmetry_equiv_pos_site_id
 _symmetry_equiv_pos_as_xyz
  1  'x, y, z'
  2  '-x, -y, -z'
loop_
 _atom_site_type_symbol
 _atom_site_label
 _atom_site_symmetry_multiplicity
 _atom_site_fract_x
 _atom_site_fract_y
 _atom_site_fract_z
 _atom_site_occupancy
  Cu  Cu0  2  0.21337428  0.82735899  0.61497427  1
  Cu  Cu1  2  0.30724902  0.71579905  0.36159550  1
  Cu  Cu2  2  0.37047172  0.15442521  0.80832938  1
  Bi  Bi3  1  0.50000000  0.00000000  0.50000000  1
  Pb  Pb4  2  0.22204672  0.26626504  0.30539883  1
  S  S5  2  0.02619644  0.06858483  0.75764591  1
  S  S6  2  0.03287203  0.81545041  0.93571193  1
  S  S7  2  0.07018889  0.70460414  0.69407073  1
  S  S8  2  0.11700442  0.59177513  0.37037872  1
  S  S9  2  0.12379475  0.68827391  0.83750741  1
  S  S10  2  0.12706603  0.00564389  0.35096871  1
  S  S11  2  0.16798925  0.22907382  0.08876214  1
  S  S12  2  0.19162645  0.28873473  0.51436153  1
  S  S13  2  0.19974878  0.62251631  0.51520259  1
  S  S14  2  0.20772872  0.03252386  0.70074703  1
  S  S15  2  0.22425015  0.89088852  0.44389515  1
  S  S16  2  0.24640337  0.51472628  0.27119234  1
  S  S17  2  0.31587198  0.98155016  0.10009752  1
  S  S18  2  0.32684685  0.31830649  0.92177408  1
  S  S19  2  0.34452110  0.67460333  0.05820034  1
  S  S20  2  0.37003411  0.36350991  0.58739997  1
  S  S21  2  0.39298252  0.83572122  0.16301901  1
  S  S22  2  0.39645608  0.96715748  0.97186370  1
  S  S23  2  0.45060994  0.86428949  0.65842032  1
  S  S24  2  0.47280388  0.22835337  0.63882799  1
  S  S25  2  0.49229032  0.34255241  0.02470133  1
  S  S26  2  0.49760256  0.30618216  0.35052582  1
