# generated using pymatgen
data_Cu6Bi2PbS44
_symmetry_space_group_name_H-M   'P 1'
_cell_length_a   10.41067270
_cell_length_b   12.31983562
_cell_length_c   13.12114684
_cell_angle_alpha   72.98553212
_cell_angle_beta   79.78510149
_cell_angle_gamma   90.58112917
_symmetry_Int_Tables_number   1
_chemical_formula_structural   Cu6Bi2PbS44
_chemical_formula_sum   'Cu6 Bi2 Pb1 S44'
_cell_volume   1580.27887384
_cell_formula_units_Z   1
loop_
 _symmetry_equiv_pos_site_id
 _symmetry_equiv_pos_as_xyz
  1  'x, y, z'
loop_
 _atom_site_type_symbol
 _atom_site_label
 _atom_site_symmetry_multiplicity
 _atom_site_fract_x
 _atom_site_fract_y
 _atom_site_fract_z
 _atom_site_occupancy
  Cu  Cu0  1  0.28848423  0.73873243  0.59752261  1
  Cu  Cu1  1  0.71151577  0.26126757  0.40247739  1
  Cu  Cu2  1  0.21990351  0.81292887  0.35285641  1
  Cu  Cu3  1  0.78009649  0.18707113  0.64714359  1
  Cu  Cu4  1  0.36141585  0.12550200  0.19260378  1
  Cu  Cu5  1  0.63858415  0.87449800  0.80739622  1
  Bi  Bi6  1  0.21822274  0.26689399  0.70668859  1
  Bi  Bi7  1  0.78177726  0.73310601  0.29331141  1
  Pb  Pb8  1  0.50000000  0.00000000  0.50000000  1
  S  S9  1  0.21170127  0.91454716  0.56308357  1
  S  S10  1  0.78829873  0.08545284  0.43691643  1
  S  S11  1  0.48204242  0.74807688  0.64142164  1
  S  S12  1  0.51795758  0.25192312  0.35857836  1
  S  S13  1  0.27084020  0.64694970  0.47293914  1
  S  S14  1  0.72915980  0.35305030  0.52706086  1
  S  S15  1  0.13008343  0.58012202  0.62336359  1
  S  S16  1  0.86991657  0.41987798  0.37663641  1
  S  S17  1  0.23142124  0.47643918  0.72659312  1
  S  S18  1  0.76857876  0.52356082  0.27340688  1
  S  S19  1  0.44123903  0.84629419  0.29077243  1
  S  S20  1  0.55876097  0.15370581  0.70922757  1
  S  S21  1  0.19261540  0.00706472  0.29503522  1
  S  S22  1  0.80738460  0.99293528  0.70496478  1
  S  S23  1  0.04641701  0.71282051  0.31720772  1
  S  S24  1  0.95358299  0.28717949  0.68279228  1
  S  S25  1  0.12790044  0.69348408  0.16942990  1
  S  S26  1  0.87209956  0.30651592  0.83057010  1
  S  S27  1  0.57101141  0.11675648  0.20388755  1
  S  S28  1  0.42898859  0.88324352  0.79611245  1
  S  S29  1  0.39781131  0.96857541  0.02021154  1
  S  S30  1  0.60218869  0.03142459  0.97978846  1
  S  S31  1  0.31441761  0.28832880  0.07830793  1
  S  S32  1  0.68558239  0.71167120  0.92169207  1
  S  S33  1  0.97126087  0.94256278  0.77704752  1
  S  S34  1  0.02873913  0.05743722  0.22295248  1
  S  S35  1  0.12707596  0.20923313  0.93042112  1
  S  S36  1  0.87292404  0.79076687  0.06957888  1
  S  S37  1  0.34665224  0.99808768  0.87434548  1
  S  S38  1  0.65334776  0.00191232  0.12565452  1
  S  S39  1  0.49202516  0.34266644  0.98375142  1
  S  S40  1  0.50797484  0.65733356  0.01624858  1
  S  S41  1  0.48867744  0.30829150  0.69190447  1
  S  S42  1  0.51132256  0.69170850  0.30809553  1
  S  S43  1  0.13777216  0.00721680  0.67009047  1
  S  S44  1  0.86222784  0.99278320  0.32990953  1
  S  S45  1  0.22849285  0.30513043  0.47847789  1
  S  S46  1  0.77150715  0.69486957  0.52152211  1
  S  S47  1  0.93519391  0.17107871  0.94074657  1
  S  S48  1  0.06480609  0.82892129  0.05925343  1
  S  S49  1  0.40758505  0.36990387  0.40733311  1
  S  S50  1  0.59241495  0.63009613  0.59266689  1
  S  S51  1  0.37303863  0.65870197  0.93134789  1
  S  S52  1  0.62696137  0.34129803  0.06865211  1
