# generated using pymatgen
data_Cu6Bi(PbS22)2
_symmetry_space_group_name_H-M   'P 1'
_cell_length_a   10.01902924
_cell_length_b   11.33081309
_cell_length_c   13.71723723
_cell_angle_alpha   102.81198207
_cell_angle_beta   95.76194507
_cell_angle_gamma   94.93556909
_symmetry_Int_Tables_number   1
_chemical_formula_structural   Cu6Bi(PbS22)2
_chemical_formula_sum   'Cu6 Bi1 Pb2 S44'
_cell_volume   1501.34765148
_cell_formula_units_Z   1
loop_
 _symmetry_equiv_pos_site_id
 _symmetry_equiv_pos_as_xyz
  1  'x, y, z'
loop_
 _atom_site_type_symbol
 _atom_site_label
 _atom_site_symmetry_multiplicity
 _atom_site_fract_x
 _atom_site_fract_y
 _atom_site_fract_z
 _atom_site_occupancy
  Cu  Cu0  1  0.69275098  0.28420095  0.63840450  1
  Cu  Cu1  1  0.30724902  0.71579905  0.36159550  1
  Cu  Cu2  1  0.78662572  0.17264101  0.38502573  1
  Cu  Cu3  1  0.21337428  0.82735899  0.61497427  1
  Cu  Cu4  1  0.62952828  0.84557479  0.19167062  1
  Cu  Cu5  1  0.37047172  0.15442521  0.80832938  1
  Bi  Bi6  1  0.50000000  0.00000000  0.50000000  1
  Pb  Pb7  1  0.77795328  0.73373496  0.69460117  1
  Pb  Pb8  1  0.22204672  0.26626504  0.30539883  1
  S  S9  1  0.77574985  0.10911148  0.55610485  1
  S  S10  1  0.22425015  0.89088852  0.44389515  1
  S  S11  1  0.47280388  0.22835337  0.63882799  1
  S  S12  1  0.52719612  0.77164663  0.36117201  1
  S  S13  1  0.80025122  0.37748369  0.48479741  1
  S  S14  1  0.19974878  0.62251631  0.51520259  1
  S  S15  1  0.88299558  0.40822487  0.62962128  1
  S  S16  1  0.11700442  0.59177513  0.37037872  1
  S  S17  1  0.75359663  0.48527372  0.72880766  1
  S  S18  1  0.24640337  0.51472628  0.27119234  1
  S  S19  1  0.54939006  0.13571051  0.34157968  1
  S  S20  1  0.45060994  0.86428949  0.65842032  1
  S  S21  1  0.79227128  0.96747614  0.29925297  1
  S  S22  1  0.20772872  0.03252386  0.70074703  1
  S  S23  1  0.92981111  0.29539586  0.30592927  1
  S  S24  1  0.07018889  0.70460414  0.69407073  1
  S  S25  1  0.87620525  0.31172609  0.16249259  1
  S  S26  1  0.12379475  0.68827391  0.83750741  1
  S  S27  1  0.39298252  0.83572122  0.16301901  1
  S  S28  1  0.60701748  0.16427878  0.83698099  1
  S  S29  1  0.60354392  0.03284252  0.02813630  1
  S  S30  1  0.39645608  0.96715748  0.97186370  1
  S  S31  1  0.67315315  0.68169351  0.07822592  1
  S  S32  1  0.32684685  0.31830649  0.92177408  1
  S  S33  1  0.02619644  0.06858483  0.75764591  1
  S  S34  1  0.97380356  0.93141517  0.24235409  1
  S  S35  1  0.83201075  0.77092618  0.91123786  1
  S  S36  1  0.16798925  0.22907382  0.08876214  1
  S  S37  1  0.68412802  0.01844984  0.89990248  1
  S  S38  1  0.31587198  0.98155016  0.10009752  1
  S  S39  1  0.50770968  0.65744759  0.97529867  1
  S  S40  1  0.49229032  0.34255241  0.02470133  1
  S  S41  1  0.50239744  0.69381784  0.64947418  1
  S  S42  1  0.49760256  0.30618216  0.35052582  1
  S  S43  1  0.87293397  0.99435611  0.64903129  1
  S  S44  1  0.12706603  0.00564389  0.35096871  1
  S  S45  1  0.80837355  0.71126527  0.48563847  1
  S  S46  1  0.19162645  0.28873473  0.51436153  1
  S  S47  1  0.03287203  0.81545041  0.93571193  1
  S  S48  1  0.96712797  0.18454959  0.06428807  1
  S  S49  1  0.62996589  0.63649009  0.41260003  1
  S  S50  1  0.37003411  0.36350991  0.58739997  1
  S  S51  1  0.65547890  0.32539667  0.94179966  1
  S  S52  1  0.34452110  0.67460333  0.05820034  1
