# generated using pymatgen
data_Cu6Bi2PbS44
_symmetry_space_group_name_H-M   P-1
_cell_length_a   10.41067270
_cell_length_b   12.31983562
_cell_length_c   13.12114684
_cell_angle_alpha   107.01446788
_cell_angle_beta   100.21489851
_cell_angle_gamma   90.58112917
_symmetry_Int_Tables_number   2
_chemical_formula_structural   Cu6Bi2PbS44
_chemical_formula_sum   'Cu6 Bi2 Pb1 S44'
_cell_volume   1580.27887384
_cell_formula_units_Z   1
loop_
 _symmetry_equiv_pos_site_id
 _symmetry_equiv_pos_as_xyz
  1  'x, y, z'
  2  '-x, -y, -z'
loop_
 _atom_site_type_symbol
 _atom_site_label
 _atom_site_symmetry_multiplicity
 _atom_site_fract_x
 _atom_site_fract_y
 _atom_site_fract_z
 _atom_site_occupancy
  Cu  Cu0  2  0.21990351  0.81292887  0.64714359  1
  Cu  Cu1  2  0.28848423  0.73873243  0.40247739  1
  Cu  Cu2  2  0.36141585  0.12550200  0.80739622  1
  Bi  Bi3  2  0.21822274  0.26689399  0.29331141  1
  Pb  Pb4  1  0.50000000  0.00000000  0.50000000  1
  S  S5  2  0.02873913  0.05743722  0.77704752  1
  S  S6  2  0.04641701  0.71282051  0.68279228  1
  S  S7  2  0.06480609  0.82892129  0.94074657  1
  S  S8  2  0.12707596  0.20923313  0.06957888  1
  S  S9  2  0.12790044  0.69348408  0.83057010  1
  S  S10  2  0.13008343  0.58012202  0.37663641  1
  S  S11  2  0.13777216  0.00721680  0.32990953  1
  S  S12  2  0.19261540  0.00706472  0.70496478  1
  S  S13  2  0.21170127  0.91454716  0.43691643  1
  S  S14  2  0.22849285  0.30513043  0.52152211  1
  S  S15  2  0.23142124  0.47643918  0.27340688  1
  S  S16  2  0.27084020  0.64694970  0.52706086  1
  S  S17  2  0.31441761  0.28832880  0.92169207  1
  S  S18  2  0.34665224  0.99808768  0.12565452  1
  S  S19  2  0.37303863  0.65870197  0.06865211  1
  S  S20  2  0.39781131  0.96857541  0.97978846  1
  S  S21  2  0.40758505  0.36990387  0.59266689  1
  S  S22  2  0.42898859  0.88324352  0.20388755  1
  S  S23  2  0.44123903  0.84629419  0.70922757  1
  S  S24  2  0.48204242  0.74807688  0.35857836  1
  S  S25  2  0.48867744  0.30829150  0.30809553  1
  S  S26  2  0.49202516  0.34266644  0.01624858  1
