# generated using pymatgen
data_Er(InCl2)3
_symmetry_space_group_name_H-M   'P 1'
_cell_length_a   7.86425497
_cell_length_b   7.86425497
_cell_length_c   13.62845119
_cell_angle_alpha   90.00000000
_cell_angle_beta   90.00000000
_cell_angle_gamma   120.00000000
_symmetry_Int_Tables_number   1
_chemical_formula_structural   Er(InCl2)3
_chemical_formula_sum   'Er2 In6 Cl12'
_cell_volume   729.94864290
_cell_formula_units_Z   2
loop_
 _symmetry_equiv_pos_site_id
 _symmetry_equiv_pos_as_xyz
  1  'x, y, z'
loop_
 _atom_site_type_symbol
 _atom_site_label
 _atom_site_symmetry_multiplicity
 _atom_site_fract_x
 _atom_site_fract_y
 _atom_site_fract_z
 _atom_site_occupancy
  Er  Er0  1  0.33333333  0.66666667  0.75000000  1
  Er  Er1  1  0.66666667  0.33333333  0.25000000  1
  In  In2  1  0.00000000  0.00000000  0.75000000  1
  In  In3  1  0.00000000  0.00000000  0.25000000  1
  In  In4  1  0.33333333  0.66666667  0.45406185  1
  In  In5  1  0.66666667  0.33333333  0.95406185  1
  In  In6  1  0.66666667  0.33333333  0.54593815  1
  In  In7  1  0.33333333  0.66666667  0.04593815  1
  Cl  Cl8  1  0.07092936  0.68308142  0.63524392  1
  Cl  Cl9  1  0.61215206  0.92907064  0.63524392  1
  Cl  Cl10  1  0.31691858  0.38784794  0.63524392  1
  Cl  Cl11  1  0.38784794  0.31691858  0.13524392  1
  Cl  Cl12  1  0.92907064  0.61215206  0.13524392  1
  Cl  Cl13  1  0.68308142  0.07092936  0.13524392  1
  Cl  Cl14  1  0.92907064  0.31691858  0.36475608  1
  Cl  Cl15  1  0.38784794  0.07092936  0.36475608  1
  Cl  Cl16  1  0.68308142  0.61215206  0.36475608  1
  Cl  Cl17  1  0.61215206  0.68308142  0.86475608  1
  Cl  Cl18  1  0.07092936  0.38784794  0.86475608  1
  Cl  Cl19  1  0.31691858  0.92907064  0.86475608  1
