# generated using pymatgen
data_ErInCl4
_symmetry_space_group_name_H-M   'P 1'
_cell_length_a   7.30058013
_cell_length_b   6.76924003
_cell_length_c   17.03794899
_cell_angle_alpha   90.00000000
_cell_angle_beta   87.32504525
_cell_angle_gamma   90.00000000
_symmetry_Int_Tables_number   1
_chemical_formula_structural   ErInCl4
_chemical_formula_sum   'Er4 In4 Cl16'
_cell_volume   841.08738878
_cell_formula_units_Z   4
loop_
 _symmetry_equiv_pos_site_id
 _symmetry_equiv_pos_as_xyz
  1  'x, y, z'
loop_
 _atom_site_type_symbol
 _atom_site_label
 _atom_site_symmetry_multiplicity
 _atom_site_fract_x
 _atom_site_fract_y
 _atom_site_fract_z
 _atom_site_occupancy
  Er  Er0  1  0.50869115  0.25020248  0.56869012  1
  Er  Er1  1  0.00869115  0.24979752  0.06869012  1
  Er  Er2  1  0.49130885  0.74979752  0.43130988  1
  Er  Er3  1  0.99130885  0.75020248  0.93130988  1
  In  In4  1  0.51037413  0.21847628  0.82193337  1
  In  In5  1  0.01037413  0.28152372  0.32193337  1
  In  In6  1  0.48962587  0.78152372  0.17806663  1
  In  In7  1  0.98962587  0.71847628  0.67806663  1
  Cl  Cl8  1  0.70854128  0.56716923  0.53427994  1
  Cl  Cl9  1  0.20854128  0.93283077  0.03427994  1
  Cl  Cl10  1  0.29145872  0.43283077  0.46572006  1
  Cl  Cl11  1  0.79145872  0.06716923  0.96572006  1
  Cl  Cl12  1  0.30724049  0.38706542  0.68349566  1
  Cl  Cl13  1  0.80724049  0.11293458  0.18349566  1
  Cl  Cl14  1  0.69275951  0.61293458  0.31650434  1
  Cl  Cl15  1  0.19275951  0.88706542  0.81650434  1
  Cl  Cl16  1  0.30343589  0.93195089  0.55216420  1
  Cl  Cl17  1  0.80343589  0.56804911  0.05216420  1
  Cl  Cl18  1  0.69656411  0.06804911  0.44783580  1
  Cl  Cl19  1  0.19656411  0.43195089  0.94783580  1
  Cl  Cl20  1  0.73341759  0.12067016  0.66780398  1
  Cl  Cl21  1  0.23341759  0.37932984  0.16780398  1
  Cl  Cl22  1  0.26658241  0.87932984  0.33219602  1
  Cl  Cl23  1  0.76658241  0.62067016  0.83219602  1
