# generated using pymatgen
data_ErInCl4
_symmetry_space_group_name_H-M   P2_1/c
_cell_length_a   7.30058013
_cell_length_b   6.76924003
_cell_length_c   18.22031693
_cell_angle_alpha   90.00000000
_cell_angle_beta   110.91865897
_cell_angle_gamma   90.00000000
_symmetry_Int_Tables_number   14
_chemical_formula_structural   ErInCl4
_chemical_formula_sum   'Er4 In4 Cl16'
_cell_volume   841.08738878
_cell_formula_units_Z   4
loop_
 _symmetry_equiv_pos_site_id
 _symmetry_equiv_pos_as_xyz
  1  'x, y, z'
  2  '-x, -y, -z'
  3  '-x, y+1/2, -z+1/2'
  4  'x, -y+1/2, z+1/2'
loop_
 _atom_site_type_symbol
 _atom_site_label
 _atom_site_symmetry_multiplicity
 _atom_site_fract_x
 _atom_site_fract_y
 _atom_site_fract_z
 _atom_site_occupancy
  Er  Er0  4  0.07738126  0.24979752  0.06869012  1
  In  In1  4  0.33230750  0.21847628  0.82193337  1
  Cl  Cl2  4  0.00926385  0.61293458  0.31650434  1
  Cl  Cl3  4  0.14439991  0.06804911  0.44783580  1
  Cl  Cl4  4  0.24282121  0.56716923  0.53427994  1
  Cl  Cl5  4  0.40122157  0.12067016  0.66780398  1
