# generated using pymatgen
data_H6C6S2NO36
_symmetry_space_group_name_H-M   'P 1'
_cell_length_a   10.83864494
_cell_length_b   11.41145222
_cell_length_c   12.37897154
_cell_angle_alpha   111.82498180
_cell_angle_beta   105.47741976
_cell_angle_gamma   93.10216341
_symmetry_Int_Tables_number   1
_chemical_formula_structural   H6C6S2NO36
_chemical_formula_sum   'H6 C6 S2 N1 O36'
_cell_volume   1349.53596835
_cell_formula_units_Z   1
loop_
 _symmetry_equiv_pos_site_id
 _symmetry_equiv_pos_as_xyz
  1  'x, y, z'
loop_
 _atom_site_type_symbol
 _atom_site_label
 _atom_site_symmetry_multiplicity
 _atom_site_fract_x
 _atom_site_fract_y
 _atom_site_fract_z
 _atom_site_occupancy
  H  H0  1  0.25610847  0.21027850  0.90911804  1
  H  H1  1  0.26462549  0.08678986  0.80384670  1
  H  H2  1  0.06600544  0.26468968  0.81400369  1
  H  H3  1  0.74490812  0.78929954  0.09182809  1
  H  H4  1  0.73545773  0.91350491  0.19555139  1
  H  H5  1  0.93222222  0.73350681  0.18584816  1
  C  C6  1  0.64748481  0.34926555  0.99905481  1
  C  C7  1  0.35261030  0.65078842  0.00084455  1
  C  C8  1  0.35601173  0.99845875  0.35453647  1
  C  C9  1  0.64414066  0.00159517  0.64560704  1
  C  C10  1  0.00007375  0.64378514  0.64485364  1
  C  C11  1  0.00009771  0.35647108  0.35550238  1
  S  S12  1  0.68240755  0.68374982  0.31494506  1
  S  S13  1  0.31750913  0.31624176  0.68485012  1
  N  N14  1  0.02981216  0.97895719  0.97498680  1
  O  O15  1  0.00143901  0.99472616  0.68655871  1
  O  O16  1  0.00303324  0.27544405  0.95448374  1
  O  O17  1  0.26416556  0.97724518  0.97682935  1
  O  O18  1  0.99890156  0.00227240  0.30983557  1
  O  O19  1  0.99733408  0.72790393  0.04748320  1
  O  O20  1  0.72665615  0.03679035  0.03093614  1
  O  O21  1  0.07753028  0.07190141  0.06859620  1
  O  O22  1  0.15595441  0.91240203  0.90647107  1
  O  O23  1  0.92485988  0.17503916  0.88131917  1
  O  O24  1  0.92275819  0.91670227  0.91839638  1
  O  O25  1  0.82055215  0.10727147  0.11764811  1
  O  O26  1  0.07872253  0.82496492  0.12315923  1
  O  O27  1  0.07758724  0.67757934  0.60696171  1
  O  O28  1  0.67692690  0.07780090  0.61137913  1
  O  O29  1  0.67932645  0.37928153  0.92785881  1
  O  O30  1  0.07728921  0.38953330  0.31680576  1
  O  O31  1  0.38838246  0.07454522  0.31983631  1
  O  O32  1  0.38253065  0.68093752  0.92913285  1
  O  O33  1  0.92292905  0.32351684  0.39415707  1
  O  O34  1  0.32311291  0.92223795  0.38867662  1
  O  O35  1  0.32070491  0.62082735  0.07205299  1
  O  O36  1  0.92265914  0.60999084  0.68287770  1
  O  O37  1  0.61189613  0.92555358  0.68038740  1
  O  O38  1  0.61745784  0.31898669  0.07065356  1
  O  O39  1  0.94764590  0.93812393  0.35248343  1
  O  O40  1  0.88561514  0.68730183  0.09792005  1
  O  O41  1  0.68277002  0.83709766  0.12712002  1
  O  O42  1  0.05138861  0.06409946  0.64791639  1
  O  O43  1  0.11303531  0.31268443  0.90171813  1
  O  O44  1  0.31784694  0.16035014  0.87530396  1
  O  O45  1  0.61763647  0.61206015  0.18709539  1
  O  O46  1  0.63639130  0.79448658  0.38345379  1
  O  O47  1  0.79466662  0.64445563  0.37600663  1
  O  O48  1  0.38180464  0.38720816  0.81293302  1
  O  O49  1  0.36353356  0.20549291  0.61635026  1
  O  O50  1  0.20548032  0.35580251  0.62382521  1
