# generated using pymatgen
data_HCSNO13
_symmetry_space_group_name_H-M   'P 1'
_cell_length_a   7.61358763
_cell_length_b   10.71915951
_cell_length_c   17.31852923
_cell_angle_alpha   97.93878170
_cell_angle_beta   90.00000000
_cell_angle_gamma   90.00000000
_symmetry_Int_Tables_number   1
_chemical_formula_structural   HCSNO13
_chemical_formula_sum   'H4 C4 S4 N4 O52'
_cell_volume   1399.84138409
_cell_formula_units_Z   4
loop_
 _symmetry_equiv_pos_site_id
 _symmetry_equiv_pos_as_xyz
  1  'x, y, z'
loop_
 _atom_site_type_symbol
 _atom_site_label
 _atom_site_symmetry_multiplicity
 _atom_site_fract_x
 _atom_site_fract_y
 _atom_site_fract_z
 _atom_site_occupancy
  H  H0  1  0.74482659  0.28567594  0.98276032  1
  H  H1  1  0.24482659  0.21432406  0.01723968  1
  H  H2  1  0.25517341  0.71432406  0.01723968  1
  H  H3  1  0.75517341  0.78567594  0.98276032  1
  C  C4  1  0.22930853  0.58612691  0.45478597  1
  C  C5  1  0.72930853  0.91387309  0.54521403  1
  C  C6  1  0.77069147  0.41387309  0.54521403  1
  C  C7  1  0.27069147  0.08612691  0.45478597  1
  S  S8  1  0.79829479  0.09040376  0.98063756  1
  S  S9  1  0.29829479  0.40959624  0.01936244  1
  S  S10  1  0.20170521  0.90959624  0.01936244  1
  S  S11  1  0.70170521  0.59040376  0.98063756  1
  N  N12  1  0.74719858  0.78779899  0.72339014  1
  N  N13  1  0.24719858  0.71220101  0.27660986  1
  N  N14  1  0.25280142  0.21220101  0.27660986  1
  N  N15  1  0.75280142  0.28779899  0.72339014  1
  O  O16  1  0.14474671  0.89885319  0.93740259  1
  O  O17  1  0.64474671  0.60114681  0.06259741  1
  O  O18  1  0.85525329  0.10114681  0.06259741  1
  O  O19  1  0.35525329  0.39885319  0.93740259  1
  O  O20  1  0.67463765  0.20739333  0.97392970  1
  O  O21  1  0.17463765  0.29260667  0.02607030  1
  O  O22  1  0.32536235  0.79260667  0.02607030  1
  O  O23  1  0.82536235  0.70739333  0.97392970  1
  O  O24  1  0.68936380  0.98005646  0.95630206  1
  O  O25  1  0.18936380  0.51994354  0.04369794  1
  O  O26  1  0.31063620  0.01994354  0.04369794  1
  O  O27  1  0.81063620  0.48005646  0.95630206  1
  O  O28  1  0.94986921  0.10244236  0.92942741  1
  O  O29  1  0.44986921  0.39755764  0.07057259  1
  O  O30  1  0.05013079  0.89755764  0.07057259  1
  O  O31  1  0.55013079  0.60244236  0.92942741  1
  O  O32  1  0.81144559  0.89551440  0.73995634  1
  O  O33  1  0.31144559  0.60448560  0.26004366  1
  O  O34  1  0.18855441  0.10448560  0.26004366  1
  O  O35  1  0.68855441  0.39551440  0.73995634  1
  O  O36  1  0.90376685  0.51421166  0.19242782  1
  O  O37  1  0.40376685  0.98578834  0.80757218  1
  O  O38  1  0.09623315  0.48578834  0.80757218  1
  O  O39  1  0.59623315  0.01421166  0.19242782  1
  O  O40  1  0.81893767  0.23233294  0.77539646  1
  O  O41  1  0.31893767  0.26766706  0.22460354  1
  O  O42  1  0.18106233  0.76766706  0.22460354  1
  O  O43  1  0.68106233  0.73233294  0.77539646  1
  O  O44  1  0.90871811  0.39924181  0.18495650  1
  O  O45  1  0.40871811  0.10075819  0.81504350  1
  O  O46  1  0.09128189  0.60075819  0.81504350  1
  O  O47  1  0.59128189  0.89924181  0.18495650  1
  O  O48  1  0.38274641  0.58856548  0.46390062  1
  O  O49  1  0.88274641  0.91143452  0.53609938  1
  O  O50  1  0.61725359  0.41143452  0.53609938  1
  O  O51  1  0.11725359  0.08856548  0.46390062  1
  O  O52  1  0.07629796  0.58397960  0.44612058  1
  O  O53  1  0.57629796  0.91602040  0.55387942  1
  O  O54  1  0.92370204  0.41602040  0.55387942  1
  O  O55  1  0.42370204  0.08397960  0.44612058  1
  O  O56  1  0.74819070  0.73433226  0.65432551  1
  O  O57  1  0.24819070  0.76566774  0.34567449  1
  O  O58  1  0.25180930  0.26566774  0.34567449  1
  O  O59  1  0.75180930  0.23433226  0.65432551  1
  O  O60  1  0.22578617  0.80436103  0.63754402  1
  O  O61  1  0.72578617  0.69563897  0.36245598  1
  O  O62  1  0.77421383  0.19563897  0.36245598  1
  O  O63  1  0.27421383  0.30436103  0.63754402  1
  O  O64  1  0.19022883  0.69808058  0.65132750  1
  O  O65  1  0.69022883  0.80191942  0.34867250  1
  O  O66  1  0.80977117  0.30191942  0.34867250  1
  O  O67  1  0.30977117  0.19808058  0.65132750  1
