# generated using pymatgen
data_Hf3Zn7N
_symmetry_space_group_name_H-M   'P 1'
_cell_length_a   5.37646993
_cell_length_b   8.46538739
_cell_length_c   8.46538739
_cell_angle_alpha   120.00000000
_cell_angle_beta   90.00000000
_cell_angle_gamma   90.00000000
_symmetry_Int_Tables_number   1
_chemical_formula_structural   Hf3Zn7N
_chemical_formula_sum   'Hf6 Zn14 N2'
_cell_volume   333.67335398
_cell_formula_units_Z   2
loop_
 _symmetry_equiv_pos_site_id
 _symmetry_equiv_pos_as_xyz
  1  'x, y, z'
loop_
 _atom_site_type_symbol
 _atom_site_label
 _atom_site_symmetry_multiplicity
 _atom_site_fract_x
 _atom_site_fract_y
 _atom_site_fract_z
 _atom_site_occupancy
  Hf  Hf0  1  0.34205694  0.87572755  0.12427245  1
  Hf  Hf1  1  0.34205694  0.24854490  0.12427245  1
  Hf  Hf2  1  0.34205694  0.87572755  0.75145510  1
  Hf  Hf3  1  0.84205694  0.12427245  0.87572755  1
  Hf  Hf4  1  0.84205694  0.75145510  0.87572755  1
  Hf  Hf5  1  0.84205694  0.12427245  0.24854490  1
  Zn  Zn6  1  0.83776828  0.33333333  0.66666667  1
  Zn  Zn7  1  0.33776828  0.66666667  0.33333333  1
  Zn  Zn8  1  0.85073093  0.77724685  0.22275315  1
  Zn  Zn9  1  0.85073093  0.44550631  0.22275315  1
  Zn  Zn10  1  0.85073093  0.77724685  0.55449369  1
  Zn  Zn11  1  0.35073093  0.22275315  0.77724685  1
  Zn  Zn12  1  0.35073093  0.55449369  0.77724685  1
  Zn  Zn13  1  0.35073093  0.22275315  0.44550631  1
  Zn  Zn14  1  0.09223100  0.49736598  0.50263402  1
  Zn  Zn15  1  0.09223100  0.00526803  0.50263402  1
  Zn  Zn16  1  0.09223100  0.49736598  0.99473197  1
  Zn  Zn17  1  0.59223100  0.50263402  0.49736598  1
  Zn  Zn18  1  0.59223100  0.99473197  0.49736598  1
  Zn  Zn19  1  0.59223100  0.50263402  0.00526803  1
  N  N20  1  0.09067509  0.00000000  0.00000000  1
  N  N21  1  0.59067509  0.00000000  0.00000000  1
