# generated using pymatgen
data_Hf3Zn7N
_symmetry_space_group_name_H-M   P6_3mc
_cell_length_a   8.46538739
_cell_length_b   8.46538739
_cell_length_c   5.37646993
_cell_angle_alpha   90.00000000
_cell_angle_beta   90.00000000
_cell_angle_gamma   120.00000000
_symmetry_Int_Tables_number   186
_chemical_formula_structural   Hf3Zn7N
_chemical_formula_sum   'Hf6 Zn14 N2'
_cell_volume   333.67335398
_cell_formula_units_Z   2
loop_
 _symmetry_equiv_pos_site_id
 _symmetry_equiv_pos_as_xyz
  1  'x, y, z'
  2  'x-y, x, z+1/2'
  3  '-y, x-y, z'
  4  '-x, -y, z+1/2'
  5  '-x+y, -x, z'
  6  'y, -x+y, z+1/2'
  7  'y, x, z+1/2'
  8  'x, x-y, z'
  9  'x-y, -y, z+1/2'
  10  '-y, -x, z'
  11  '-x, -x+y, z+1/2'
  12  '-x+y, y, z'
loop_
 _atom_site_type_symbol
 _atom_site_label
 _atom_site_symmetry_multiplicity
 _atom_site_fract_x
 _atom_site_fract_y
 _atom_site_fract_z
 _atom_site_occupancy
  Hf  Hf0  6  0.12427245  0.24854490  0.84205694  1
  Zn  Zn1  6  0.00526803  0.50263402  0.09223100  1
  Zn  Zn2  6  0.22275315  0.44550631  0.35073093  1
  Zn  Zn3  2  0.33333333  0.66666667  0.83776828  1
  N  N4  2  0.00000000  0.00000000  0.09067509  1
