# generated using pymatgen
data_K2EuSi4O10F
_symmetry_space_group_name_H-M   P2_1/m
_cell_length_a   11.90603522
_cell_length_b   8.65966355
_cell_length_c   12.06987625
_cell_angle_alpha   90.00000000
_cell_angle_beta   112.84381707
_cell_angle_gamma   90.00000000
_symmetry_Int_Tables_number   11
_chemical_formula_structural   K2EuSi4O10F
_chemical_formula_sum   'K8 Eu4 Si16 O40 F4'
_cell_volume   1146.82642711
_cell_formula_units_Z   4
loop_
 _symmetry_equiv_pos_site_id
 _symmetry_equiv_pos_as_xyz
  1  'x, y, z'
  2  '-x, -y, -z'
  3  '-x, y+1/2, -z'
  4  'x, -y+1/2, z'
loop_
 _atom_site_type_symbol
 _atom_site_label
 _atom_site_symmetry_multiplicity
 _atom_site_fract_x
 _atom_site_fract_y
 _atom_site_fract_z
 _atom_site_occupancy
  K  K0  2  0.03202929  0.75000000  0.96872382  1
  K  K1  2  0.05615017  0.25000000  0.44401917  1
  K  K2  2  0.41506804  0.75000000  0.92228278  1
  K  K3  2  0.49829707  0.25000000  0.47470328  1
  Eu  Eu4  4  0.20747587  0.50509138  0.28938884  1
  Si  Si5  4  0.11442126  0.06370634  0.76793699  1
  Si  Si6  4  0.25559810  0.56870608  0.62081841  1
  Si  Si7  4  0.27601869  0.06992495  0.03310879  1
  Si  Si8  4  0.48580402  0.56933586  0.24402356  1
  O  O9  4  0.00487640  0.03614307  0.24892926  1
  O  O10  4  0.15642737  0.03683832  0.65339712  1
  O  O11  4  0.17516071  0.04594889  0.08908943  1
  O  O12  4  0.22997759  0.00987929  0.89210888  1
  O  O13  4  0.24976258  0.53072908  0.48953012  1
  O  O14  4  0.39308715  0.54161675  0.72644954  1
  O  O15  4  0.40178299  0.53370420  0.09999485  1
  O  O16  4  0.41463468  0.53356592  0.33036875  1
  O  O17  2  0.09338323  0.25000000  0.77647348  1
  O  O18  2  0.22040964  0.75000000  0.63813347  1
  O  O19  2  0.32438619  0.25000000  0.03909388  1
  O  O20  2  0.46844208  0.25000000  0.74875062  1
  F  F21  2  0.16351304  0.75000000  0.22117906  1
  F  F22  2  0.24741153  0.25000000  0.33987118  1
