# generated using pymatgen
data_K2EuSi4O10F
_symmetry_space_group_name_H-M   'P 1'
_cell_length_a   8.65966355
_cell_length_b   11.90603522
_cell_length_c   12.06987625
_cell_angle_alpha   112.84381707
_cell_angle_beta   90.00000000
_cell_angle_gamma   90.00000000
_symmetry_Int_Tables_number   1
_chemical_formula_structural   K2EuSi4O10F
_chemical_formula_sum   'K8 Eu4 Si16 O40 F4'
_cell_volume   1146.82642711
_cell_formula_units_Z   4
loop_
 _symmetry_equiv_pos_site_id
 _symmetry_equiv_pos_as_xyz
  1  'x, y, z'
loop_
 _atom_site_type_symbol
 _atom_site_label
 _atom_site_symmetry_multiplicity
 _atom_site_fract_x
 _atom_site_fract_y
 _atom_site_fract_z
 _atom_site_occupancy
  K  K0  1  0.25000000  0.94384983  0.55598083  1
  K  K1  1  0.75000000  0.05615017  0.44401917  1
  K  K2  1  0.75000000  0.58493196  0.07771722  1
  K  K3  1  0.25000000  0.41506804  0.92228278  1
  K  K4  1  0.25000000  0.50170293  0.52529672  1
  K  K5  1  0.75000000  0.49829707  0.47470328  1
  K  K6  1  0.75000000  0.96797071  0.03127618  1
  K  K7  1  0.25000000  0.03202929  0.96872382  1
  Eu  Eu8  1  0.99490862  0.79252413  0.71061116  1
  Eu  Eu9  1  0.49490862  0.20747587  0.28938884  1
  Eu  Eu10  1  0.00509138  0.20747587  0.28938884  1
  Eu  Eu11  1  0.50509138  0.79252413  0.71061116  1
  Si  Si12  1  0.06370634  0.88557874  0.23206301  1
  Si  Si13  1  0.56370634  0.11442126  0.76793699  1
  Si  Si14  1  0.93629366  0.11442126  0.76793699  1
  Si  Si15  1  0.43629366  0.88557874  0.23206301  1
  Si  Si16  1  0.93066414  0.51419598  0.75597644  1
  Si  Si17  1  0.43066414  0.48580402  0.24402356  1
  Si  Si18  1  0.06933586  0.48580402  0.24402356  1
  Si  Si19  1  0.56933586  0.51419598  0.75597644  1
  Si  Si20  1  0.56870608  0.74440190  0.37918159  1
  Si  Si21  1  0.06870608  0.25559810  0.62081841  1
  Si  Si22  1  0.43129392  0.25559810  0.62081841  1
  Si  Si23  1  0.93129392  0.74440190  0.37918159  1
  Si  Si24  1  0.06992495  0.72398131  0.96689121  1
  Si  Si25  1  0.56992495  0.27601869  0.03310879  1
  Si  Si26  1  0.93007505  0.27601869  0.03310879  1
  Si  Si27  1  0.43007505  0.72398131  0.96689121  1
  O  O28  1  0.25000000  0.90661677  0.22352652  1
  O  O29  1  0.75000000  0.09338323  0.77647348  1
  O  O30  1  0.25000000  0.22040964  0.63813347  1
  O  O31  1  0.75000000  0.77959036  0.36186653  1
  O  O32  1  0.00987929  0.77002241  0.10789112  1
  O  O33  1  0.50987929  0.22997759  0.89210888  1
  O  O34  1  0.99012071  0.22997759  0.89210888  1
  O  O35  1  0.49012071  0.77002241  0.10789112  1
  O  O36  1  0.03683832  0.84357263  0.34660288  1
  O  O37  1  0.53683832  0.15642737  0.65339712  1
  O  O38  1  0.96316168  0.15642737  0.65339712  1
  O  O39  1  0.46316168  0.84357263  0.34660288  1
  O  O40  1  0.75000000  0.46844208  0.74875062  1
  O  O41  1  0.25000000  0.53155792  0.25124938  1
  O  O42  1  0.04161675  0.39308715  0.72644954  1
  O  O43  1  0.54161675  0.60691285  0.27355046  1
  O  O44  1  0.95838325  0.60691285  0.27355046  1
  O  O45  1  0.45838325  0.39308715  0.72644954  1
  O  O46  1  0.96629580  0.59821701  0.90000515  1
  O  O47  1  0.46629580  0.40178299  0.09999485  1
  O  O48  1  0.03370420  0.40178299  0.09999485  1
  O  O49  1  0.53370420  0.59821701  0.90000515  1
  O  O50  1  0.25000000  0.67561381  0.96090612  1
  O  O51  1  0.75000000  0.32438619  0.03909388  1
  O  O52  1  0.96385693  0.00487640  0.24892926  1
  O  O53  1  0.46385693  0.99512360  0.75107074  1
  O  O54  1  0.03614307  0.99512360  0.75107074  1
  O  O55  1  0.53614307  0.00487640  0.24892926  1
  O  O56  1  0.96643408  0.58536532  0.66963125  1
  O  O57  1  0.46643408  0.41463468  0.33036875  1
  O  O58  1  0.03356592  0.41463468  0.33036875  1
  O  O59  1  0.53356592  0.58536532  0.66963125  1
  O  O60  1  0.04594889  0.82483929  0.91091057  1
  O  O61  1  0.54594889  0.17516071  0.08908943  1
  O  O62  1  0.95405111  0.17516071  0.08908943  1
  O  O63  1  0.45405111  0.82483929  0.91091057  1
  O  O64  1  0.96927092  0.75023742  0.51046988  1
  O  O65  1  0.46927092  0.24976258  0.48953012  1
  O  O66  1  0.03072908  0.24976258  0.48953012  1
  O  O67  1  0.53072908  0.75023742  0.51046988  1
  F  F68  1  0.25000000  0.75258847  0.66012882  1
  F  F69  1  0.75000000  0.24741153  0.33987118  1
  F  F70  1  0.75000000  0.83648696  0.77882094  1
  F  F71  1  0.25000000  0.16351304  0.22117906  1
