# generated using pymatgen
data_K5Eu4Si4O16F
_symmetry_space_group_name_H-M   I-4
_cell_length_a   12.45570824
_cell_length_b   12.45570824
_cell_length_c   5.60043099
_cell_angle_alpha   90.00000000
_cell_angle_beta   90.00000000
_cell_angle_gamma   90.00000000
_symmetry_Int_Tables_number   82
_chemical_formula_structural   K5Eu4Si4O16F
_chemical_formula_sum   'K10 Eu8 Si8 O32 F2'
_cell_volume   868.87700637
_cell_formula_units_Z   2
loop_
 _symmetry_equiv_pos_site_id
 _symmetry_equiv_pos_as_xyz
  1  'x, y, z'
  2  'y, -x, -z'
  3  '-x, -y, z'
  4  '-y, x, -z'
  5  'x+1/2, y+1/2, z+1/2'
  6  'y+1/2, -x+1/2, -z+1/2'
  7  '-x+1/2, -y+1/2, z+1/2'
  8  '-y+1/2, x+1/2, -z+1/2'
loop_
 _atom_site_type_symbol
 _atom_site_label
 _atom_site_symmetry_multiplicity
 _atom_site_fract_x
 _atom_site_fract_y
 _atom_site_fract_z
 _atom_site_occupancy
  K  K0  8  0.09434596  0.89584085  0.24750476  1
  K  K1  2  0.00000000  0.50000000  0.75000000  1
  Eu  Eu2  8  0.11482699  0.31729703  0.27082873  1
  Si  Si3  8  0.10592497  0.74607141  0.76261700  1
  O  O4  8  0.03470291  0.70683694  0.99744465  1
  O  O5  8  0.05494054  0.69532924  0.51455765  1
  O  O6  8  0.11760016  0.87795554  0.74416428  1
  O  O7  8  0.20348433  0.27157719  0.67382559  1
  F  F8  2  0.00000000  0.50000000  0.25000000  1
