# generated using pymatgen
data_K5Eu4Si4O16F
_symmetry_space_group_name_H-M   'P 1'
_cell_length_a   5.60043099
_cell_length_b   9.24194464
_cell_length_c   9.24194464
_cell_angle_alpha   84.73266752
_cell_angle_beta   72.36273024
_cell_angle_gamma   72.36273024
_symmetry_Int_Tables_number   1
_chemical_formula_structural   K5Eu4Si4O16F
_chemical_formula_sum   'K5 Eu4 Si4 O16 F1'
_cell_volume   434.43850319
_cell_formula_units_Z   1
loop_
 _symmetry_equiv_pos_site_id
 _symmetry_equiv_pos_as_xyz
  1  'x, y, z'
loop_
 _atom_site_type_symbol
 _atom_site_label
 _atom_site_symmetry_multiplicity
 _atom_site_fract_x
 _atom_site_fract_y
 _atom_site_fract_z
 _atom_site_occupancy
  K  K0  1  0.84684120  0.80149489  0.00981319  1
  K  K1  1  0.65814928  0.19850511  0.99018681  1
  K  K2  1  0.14334561  0.00981319  0.19850511  1
  K  K3  1  0.35166391  0.99018681  0.80149489  1
  K  K4  1  0.25000000  0.50000000  0.50000000  1
  Eu  Eu5  1  0.58812575  0.56787598  0.79752996  1
  Eu  Eu6  1  0.95353170  0.43212402  0.20247004  1
  Eu  Eu7  1  0.61434428  0.79752996  0.43212402  1
  Eu  Eu8  1  0.84399826  0.20247004  0.56787598  1
  Si  Si9  1  0.13145803  0.35985356  0.85199638  1
  Si  Si10  1  0.34330797  0.64014644  0.14800362  1
  Si  Si11  1  0.01654559  0.85199638  0.64014644  1
  Si  Si12  1  0.50868841  0.14800362  0.35985356  1
  O  O13  1  0.96785244  0.32786597  0.74153986  1
  O  O14  1  0.03725826  0.67213403  0.25846014  1
  O  O15  1  0.29060770  0.74153986  0.67213403  1
  O  O16  1  0.70428159  0.25846014  0.32786597  1
  O  O17  1  0.37343588  0.76035538  0.00444430  1
  O  O18  1  0.13823555  0.23964462  0.99555570  1
  O  O19  1  0.62211982  0.00444430  0.23964462  1
  O  O20  1  0.86620874  0.99555570  0.76035538  1
  O  O21  1  0.94540279  0.52493848  0.93190713  1
  O  O22  1  0.40224840  0.47506152  0.06809287  1
  O  O23  1  0.12269008  0.93190713  0.47506152  1
  O  O24  1  0.52965873  0.06809287  0.52493848  1
  O  O25  1  0.54038288  0.64038870  0.24973022  1
  O  O26  1  0.43050181  0.35961130  0.75026978  1
  O  O27  1  0.20988690  0.24973022  0.35961130  1
  O  O28  1  0.81922841  0.75026978  0.64038870  1
  F  F29  1  0.75000000  0.50000000  0.50000000  1
