# generated using pymatgen
data_La2(MoO4)3
_symmetry_space_group_name_H-M   Pbcn
_cell_length_a   14.65784106
_cell_length_b   10.58322623
_cell_length_c   10.55036804
_cell_angle_alpha   90.00000000
_cell_angle_beta   90.00000000
_cell_angle_gamma   90.00000000
_symmetry_Int_Tables_number   60
_chemical_formula_structural   La2(MoO4)3
_chemical_formula_sum   'La8 Mo12 O48'
_cell_volume   1636.64955898
_cell_formula_units_Z   4
loop_
 _symmetry_equiv_pos_site_id
 _symmetry_equiv_pos_as_xyz
  1  'x, y, z'
  2  '-x, -y, -z'
  3  '-x+1/2, -y+1/2, z+1/2'
  4  'x+1/2, y+1/2, -z+1/2'
  5  'x+1/2, -y+1/2, -z'
  6  '-x+1/2, y+1/2, z'
  7  '-x, y, -z+1/2'
  8  'x, -y, z+1/2'
loop_
 _atom_site_type_symbol
 _atom_site_label
 _atom_site_symmetry_multiplicity
 _atom_site_fract_x
 _atom_site_fract_y
 _atom_site_fract_z
 _atom_site_occupancy
  La  La0  8  0.11842920  0.25126486  0.96433834  1
  Mo  Mo1  8  0.14351158  0.10630389  0.61128256  1
  Mo  Mo2  4  0.00000000  0.47339454  0.25000000  1
  O  O3  8  0.03551673  0.17317940  0.56937258  1
  O  O4  8  0.05810786  0.37607176  0.13668476  1
  O  O5  8  0.08126626  0.42734430  0.82908163  1
  O  O6  8  0.14172160  0.06059913  0.08195410  1
  O  O7  8  0.16420540  0.13609512  0.77620766  1
  O  O8  8  0.23167196  0.17756696  0.51720898  1
