# generated using pymatgen
data_La2(MoO4)3
_symmetry_space_group_name_H-M   'P 1'
_cell_length_a   10.58322623
_cell_length_b   10.55036804
_cell_length_c   14.65784106
_cell_angle_alpha   90.00000000
_cell_angle_beta   90.00000000
_cell_angle_gamma   90.00000000
_symmetry_Int_Tables_number   1
_chemical_formula_structural   La2(MoO4)3
_chemical_formula_sum   'La8 Mo12 O48'
_cell_volume   1636.64955898
_cell_formula_units_Z   4
loop_
 _symmetry_equiv_pos_site_id
 _symmetry_equiv_pos_as_xyz
  1  'x, y, z'
loop_
 _atom_site_type_symbol
 _atom_site_label
 _atom_site_symmetry_multiplicity
 _atom_site_fract_x
 _atom_site_fract_y
 _atom_site_fract_z
 _atom_site_occupancy
  La  La0  1  0.74873514  0.46433834  0.88157080  1
  La  La1  1  0.75126486  0.96433834  0.61842920  1
  La  La2  1  0.75126486  0.53566166  0.38157080  1
  La  La3  1  0.74873514  0.03566166  0.11842920  1
  La  La4  1  0.25126486  0.53566166  0.11842920  1
  La  La5  1  0.24873514  0.03566166  0.38157080  1
  La  La6  1  0.24873514  0.46433834  0.61842920  1
  La  La7  1  0.25126486  0.96433834  0.88157080  1
  Mo  Mo8  1  0.97339454  0.25000000  0.50000000  1
  Mo  Mo9  1  0.52660546  0.75000000  0.00000000  1
  Mo  Mo10  1  0.02660546  0.75000000  0.50000000  1
  Mo  Mo11  1  0.47339454  0.25000000  0.00000000  1
  Mo  Mo12  1  0.89369611  0.11128256  0.85648842  1
  Mo  Mo13  1  0.60630389  0.61128256  0.64351158  1
  Mo  Mo14  1  0.60630389  0.88871744  0.35648842  1
  Mo  Mo15  1  0.89369611  0.38871744  0.14351158  1
  Mo  Mo16  1  0.10630389  0.88871744  0.14351158  1
  Mo  Mo17  1  0.39369611  0.38871744  0.35648842  1
  Mo  Mo18  1  0.39369611  0.11128256  0.64351158  1
  Mo  Mo19  1  0.10630389  0.61128256  0.85648842  1
  O  O20  1  0.82243304  0.01720898  0.76832804  1
  O  O21  1  0.67756696  0.51720898  0.73167196  1
  O  O22  1  0.67756696  0.98279102  0.26832804  1
  O  O23  1  0.82243304  0.48279102  0.23167196  1
  O  O24  1  0.17756696  0.98279102  0.23167196  1
  O  O25  1  0.32243304  0.48279102  0.26832804  1
  O  O26  1  0.32243304  0.01720898  0.73167196  1
  O  O27  1  0.17756696  0.51720898  0.76832804  1
  O  O28  1  0.56059913  0.08195410  0.64172160  1
  O  O29  1  0.93940087  0.58195410  0.85827840  1
  O  O30  1  0.93940087  0.91804590  0.14172160  1
  O  O31  1  0.56059913  0.41804590  0.35827840  1
  O  O32  1  0.43940087  0.91804590  0.35827840  1
  O  O33  1  0.06059913  0.41804590  0.14172160  1
  O  O34  1  0.06059913  0.08195410  0.85827840  1
  O  O35  1  0.43940087  0.58195410  0.64172160  1
  O  O36  1  0.82682060  0.06937258  0.96448327  1
  O  O37  1  0.67317940  0.56937258  0.53551673  1
  O  O38  1  0.67317940  0.93062742  0.46448327  1
  O  O39  1  0.82682060  0.43062742  0.03551673  1
  O  O40  1  0.17317940  0.93062742  0.03551673  1
  O  O41  1  0.32682060  0.43062742  0.46448327  1
  O  O42  1  0.32682060  0.06937258  0.53551673  1
  O  O43  1  0.17317940  0.56937258  0.96448327  1
  O  O44  1  0.87607176  0.13668476  0.55810786  1
  O  O45  1  0.62392824  0.63668476  0.94189214  1
  O  O46  1  0.62392824  0.86331524  0.05810786  1
  O  O47  1  0.87607176  0.36331524  0.44189214  1
  O  O48  1  0.12392824  0.86331524  0.44189214  1
  O  O49  1  0.37607176  0.36331524  0.05810786  1
  O  O50  1  0.37607176  0.13668476  0.94189214  1
  O  O51  1  0.12392824  0.63668476  0.55810786  1
  O  O52  1  0.86390488  0.27620766  0.83579460  1
  O  O53  1  0.63609512  0.77620766  0.66420540  1
  O  O54  1  0.63609512  0.72379234  0.33579460  1
  O  O55  1  0.86390488  0.22379234  0.16420540  1
  O  O56  1  0.13609512  0.72379234  0.16420540  1
  O  O57  1  0.36390488  0.22379234  0.33579460  1
  O  O58  1  0.36390488  0.27620766  0.66420540  1
  O  O59  1  0.13609512  0.77620766  0.83579460  1
  O  O60  1  0.57265570  0.32908163  0.91873374  1
  O  O61  1  0.92734430  0.82908163  0.58126626  1
  O  O62  1  0.92734430  0.67091837  0.41873374  1
  O  O63  1  0.57265570  0.17091837  0.08126626  1
  O  O64  1  0.42734430  0.67091837  0.08126626  1
  O  O65  1  0.07265570  0.17091837  0.41873374  1
  O  O66  1  0.07265570  0.32908163  0.58126626  1
  O  O67  1  0.42734430  0.82908163  0.91873374  1
