# generated using pymatgen
data_La2MoO6
_symmetry_space_group_name_H-M   C2/c
_cell_length_a   17.07656674
_cell_length_b   11.70987063
_cell_length_c   5.66554650
_cell_angle_alpha   90.00000000
_cell_angle_beta   107.56789029
_cell_angle_gamma   90.00000000
_symmetry_Int_Tables_number   15
_chemical_formula_structural   La2MoO6
_chemical_formula_sum   'La16 Mo8 O48'
_cell_volume   1080.06869634
_cell_formula_units_Z   8
loop_
 _symmetry_equiv_pos_site_id
 _symmetry_equiv_pos_as_xyz
  1  'x, y, z'
  2  '-x, -y, -z'
  3  '-x, y, -z+1/2'
  4  'x, -y, z+1/2'
  5  'x+1/2, y+1/2, z'
  6  '-x+1/2, -y+1/2, -z'
  7  '-x+1/2, y+1/2, -z+1/2'
  8  'x+1/2, -y+1/2, z+1/2'
loop_
 _atom_site_type_symbol
 _atom_site_label
 _atom_site_symmetry_multiplicity
 _atom_site_fract_x
 _atom_site_fract_y
 _atom_site_fract_z
 _atom_site_occupancy
  La  La0  8  0.17264168  0.11623614  0.88439525  1
  La  La1  4  0.00000000  0.11168154  0.25000000  1
  La  La2  4  0.00000000  0.36699053  0.75000000  1
  Mo  Mo3  8  0.15286272  0.35403564  0.43670993  1
  O  O4  8  0.07640010  0.23952232  0.58427662  1
  O  O5  8  0.08055837  0.46144042  0.47636504  1
  O  O6  8  0.09305940  0.01441772  0.07776012  1
  O  O7  8  0.10622860  0.27866905  0.13878730  1
  O  O8  8  0.22827101  0.44510155  0.35640704  1
  O  O9  8  0.22836987  0.29793226  0.72340769  1
