# generated using pymatgen
data_La2MoO6
_symmetry_space_group_name_H-M   'P 1'
_cell_length_a   5.66554650
_cell_length_b   10.35290058
_cell_length_c   10.35290058
_cell_angle_alpha   68.87900497
_cell_angle_beta   75.58573403
_cell_angle_gamma   75.58573403
_symmetry_Int_Tables_number   1
_chemical_formula_structural   La2MoO6
_chemical_formula_sum   'La8 Mo4 O24'
_cell_volume   540.03434817
_cell_formula_units_Z   4
loop_
 _symmetry_equiv_pos_site_id
 _symmetry_equiv_pos_as_xyz
  1  'x, y, z'
loop_
 _atom_site_type_symbol
 _atom_site_label
 _atom_site_symmetry_multiplicity
 _atom_site_fract_x
 _atom_site_fract_y
 _atom_site_fract_z
 _atom_site_occupancy
  La  La0  1  0.25000000  0.36699053  0.63300947  1
  La  La1  1  0.75000000  0.63300947  0.36699053  1
  La  La2  1  0.11560475  0.28887782  0.05640554  1
  La  La3  1  0.61560475  0.05640554  0.28887782  1
  La  La4  1  0.88439525  0.71112218  0.94359446  1
  La  La5  1  0.38439525  0.94359446  0.71112218  1
  La  La6  1  0.25000000  0.88831846  0.11168154  1
  La  La7  1  0.75000000  0.11168154  0.88831846  1
  Mo  Mo8  1  0.06329007  0.79882708  0.50689835  1
  Mo  Mo9  1  0.56329007  0.50689835  0.79882708  1
  Mo  Mo10  1  0.93670993  0.20117292  0.49310165  1
  Mo  Mo11  1  0.43670993  0.49310165  0.20117292  1
  O  O12  1  0.07776012  0.89252288  0.92135831  1
  O  O13  1  0.57776012  0.92135831  0.89252288  1
  O  O14  1  0.92223988  0.10747712  0.07864169  1
  O  O15  1  0.42223988  0.07864169  0.10747712  1
  O  O16  1  0.08427662  0.16312222  0.68407758  1
  O  O17  1  0.58427662  0.68407758  0.16312222  1
  O  O18  1  0.91572338  0.83687778  0.31592242  1
  O  O19  1  0.41572338  0.31592242  0.83687778  1
  O  O20  1  0.97636504  0.38088206  0.45800121  1
  O  O21  1  0.47636504  0.45800121  0.38088206  1
  O  O22  1  0.02363496  0.61911794  0.54199879  1
  O  O23  1  0.52363496  0.54199879  0.61911794  1
  O  O24  1  0.85640704  0.21683054  0.32662744  1
  O  O25  1  0.35640704  0.32662744  0.21683054  1
  O  O26  1  0.14359296  0.78316946  0.67337256  1
  O  O27  1  0.64359296  0.67337256  0.78316946  1
  O  O28  1  0.22340769  0.06956239  0.47369787  1
  O  O29  1  0.72340769  0.47369787  0.06956239  1
  O  O30  1  0.77659231  0.93043761  0.52630213  1
  O  O31  1  0.27659231  0.52630213  0.93043761  1
  O  O32  1  0.63878730  0.17244046  0.61510235  1
  O  O33  1  0.13878730  0.61510235  0.17244046  1
  O  O34  1  0.36121270  0.82755954  0.38489765  1
  O  O35  1  0.86121270  0.38489765  0.82755954  1
