# generated using pymatgen
data_La3MoO7
_symmetry_space_group_name_H-M   Pna2_1
_cell_length_a   15.34805091
_cell_length_b   7.79307682
_cell_length_c   11.14488822
_cell_angle_alpha   90.00000000
_cell_angle_beta   90.00000000
_cell_angle_gamma   90.00000000
_symmetry_Int_Tables_number   33
_chemical_formula_structural   La3MoO7
_chemical_formula_sum   'La24 Mo8 O56'
_cell_volume   1333.02380536
_cell_formula_units_Z   8
loop_
 _symmetry_equiv_pos_site_id
 _symmetry_equiv_pos_as_xyz
  1  'x, y, z'
  2  '-x, -y, z+1/2'
  3  '-x+1/2, y+1/2, z+1/2'
  4  'x+1/2, -y+1/2, z'
loop_
 _atom_site_type_symbol
 _atom_site_label
 _atom_site_symmetry_multiplicity
 _atom_site_fract_x
 _atom_site_fract_y
 _atom_site_fract_z
 _atom_site_occupancy
  La  La0  4  0.02320283  0.26220065  0.89979085  1
  La  La1  4  0.02794675  0.24789362  0.45144920  1
  La  La2  4  0.11532920  0.00269784  0.17112119  1
  La  La3  4  0.13501960  0.50234509  0.18925776  1
  La  La4  4  0.22255216  0.75207149  0.91005176  1
  La  La5  4  0.22601374  0.74010392  0.46130616  1
  Mo  Mo6  4  0.12461448  0.99915778  0.68006243  1
  Mo  Mo7  4  0.12594177  0.49915368  0.68108731  1
  O  O8  4  0.01557940  0.53533566  0.78568835  1
  O  O9  4  0.03022785  0.96175443  0.55371633  1
  O  O10  4  0.03681637  0.96698059  0.80424220  1
  O  O11  4  0.06171577  0.54107745  0.53300302  1
  O  O12  4  0.08696173  0.24925223  0.67246337  1
  O  O13  4  0.10664654  0.73278026  0.04698150  1
  O  O14  4  0.11717854  0.76452321  0.31093007  1
  O  O15  4  0.13246190  0.26165010  0.04965321  1
  O  O16  4  0.14273432  0.23493992  0.31286399  1
  O  O17  4  0.16313118  0.74980157  0.68791352  1
  O  O18  4  0.19195773  0.45534312  0.82293442  1
  O  O19  4  0.21493375  0.03426814  0.55984478  1
  O  O20  4  0.22137887  0.03487634  0.80931316  1
  O  O21  4  0.23660947  0.46524893  0.57250538  1
