# generated using pymatgen
data_La3MoO7
_symmetry_space_group_name_H-M   'P 1'
_cell_length_a   7.79307682
_cell_length_b   11.14488822
_cell_length_c   15.34805091
_cell_angle_alpha   90.00000000
_cell_angle_beta   90.00000000
_cell_angle_gamma   90.00000000
_symmetry_Int_Tables_number   1
_chemical_formula_structural   La3MoO7
_chemical_formula_sum   'La24 Mo8 O56'
_cell_volume   1333.02380536
_cell_formula_units_Z   8
loop_
 _symmetry_equiv_pos_site_id
 _symmetry_equiv_pos_as_xyz
  1  'x, y, z'
loop_
 _atom_site_type_symbol
 _atom_site_label
 _atom_site_symmetry_multiplicity
 _atom_site_fract_x
 _atom_site_fract_y
 _atom_site_fract_z
 _atom_site_occupancy
  La  La0  1  0.99765491  0.18925776  0.63501960  1
  La  La1  1  0.00234509  0.68925776  0.36498040  1
  La  La2  1  0.49765491  0.68925776  0.86498040  1
  La  La3  1  0.50234509  0.18925776  0.13501960  1
  La  La4  1  0.49730216  0.17112119  0.61532920  1
  La  La5  1  0.50269784  0.67112119  0.38467080  1
  La  La6  1  0.99730216  0.67112119  0.88467080  1
  La  La7  1  0.00269784  0.17112119  0.11532920  1
  La  La8  1  0.73779935  0.39979085  0.97679717  1
  La  La9  1  0.26220065  0.89979085  0.02320283  1
  La  La10  1  0.23779935  0.89979085  0.52320283  1
  La  La11  1  0.76220065  0.39979085  0.47679717  1
  La  La12  1  0.75989608  0.46130616  0.72601374  1
  La  La13  1  0.24010392  0.96130616  0.27398626  1
  La  La14  1  0.25989608  0.96130616  0.77398626  1
  La  La15  1  0.74010392  0.46130616  0.22601374  1
  La  La16  1  0.24789362  0.45144920  0.02794675  1
  La  La17  1  0.75210638  0.95144920  0.97205325  1
  La  La18  1  0.74789362  0.95144920  0.47205325  1
  La  La19  1  0.25210638  0.45144920  0.52794675  1
  La  La20  1  0.24792851  0.41005176  0.77744784  1
  La  La21  1  0.75207149  0.91005176  0.22255216  1
  La  La22  1  0.74792851  0.91005176  0.72255216  1
  La  La23  1  0.25207149  0.41005176  0.27744784  1
  Mo  Mo24  1  0.00084222  0.18006243  0.87538552  1
  Mo  Mo25  1  0.99915778  0.68006243  0.12461448  1
  Mo  Mo26  1  0.50084222  0.68006243  0.62461448  1
  Mo  Mo27  1  0.49915778  0.18006243  0.37538552  1
  Mo  Mo28  1  0.50084632  0.18108731  0.87405823  1
  Mo  Mo29  1  0.49915368  0.68108731  0.12594177  1
  Mo  Mo30  1  0.00084632  0.68108731  0.62594177  1
  Mo  Mo31  1  0.99915368  0.18108731  0.37405823  1
  O  O32  1  0.25019843  0.18791352  0.83686882  1
  O  O33  1  0.74980157  0.68791352  0.16313118  1
  O  O34  1  0.75019843  0.68791352  0.66313118  1
  O  O35  1  0.24980157  0.18791352  0.33686882  1
  O  O36  1  0.75074777  0.17246337  0.91303827  1
  O  O37  1  0.24925223  0.67246337  0.08696173  1
  O  O38  1  0.25074777  0.67246337  0.58696173  1
  O  O39  1  0.74925223  0.17246337  0.41303827  1
  O  O40  1  0.96512366  0.30931316  0.77862113  1
  O  O41  1  0.03487634  0.80931316  0.22137887  1
  O  O42  1  0.46512366  0.80931316  0.72137887  1
  O  O43  1  0.53487634  0.30931316  0.27862113  1
  O  O44  1  0.96573186  0.05984478  0.78506625  1
  O  O45  1  0.03426814  0.55984478  0.21493375  1
  O  O46  1  0.46573186  0.55984478  0.71493375  1
  O  O47  1  0.53426814  0.05984478  0.28506625  1
  O  O48  1  0.03824557  0.05371633  0.96977215  1
  O  O49  1  0.96175443  0.55371633  0.03022785  1
  O  O50  1  0.53824557  0.55371633  0.53022785  1
  O  O51  1  0.46175443  0.05371633  0.46977215  1
  O  O52  1  0.03301941  0.30424220  0.96318363  1
  O  O53  1  0.96698059  0.80424220  0.03681637  1
  O  O54  1  0.53301941  0.80424220  0.53681637  1
  O  O55  1  0.46698059  0.30424220  0.46318363  1
  O  O56  1  0.54465688  0.32293442  0.80804227  1
  O  O57  1  0.45534312  0.82293442  0.19195773  1
  O  O58  1  0.04465688  0.82293442  0.69195773  1
  O  O59  1  0.95534312  0.32293442  0.30804227  1
  O  O60  1  0.53475107  0.07250538  0.76339053  1
  O  O61  1  0.46524893  0.57250538  0.23660947  1
  O  O62  1  0.03475107  0.57250538  0.73660947  1
  O  O63  1  0.96524893  0.07250538  0.26339053  1
  O  O64  1  0.45892255  0.03300302  0.93828423  1
  O  O65  1  0.54107745  0.53300302  0.06171577  1
  O  O66  1  0.95892255  0.53300302  0.56171577  1
  O  O67  1  0.04107745  0.03300302  0.43828423  1
  O  O68  1  0.46466434  0.28568835  0.98442060  1
  O  O69  1  0.53533566  0.78568835  0.01557940  1
  O  O70  1  0.96466434  0.78568835  0.51557940  1
  O  O71  1  0.03533566  0.28568835  0.48442060  1
  O  O72  1  0.73834990  0.54965321  0.86753810  1
  O  O73  1  0.26165010  0.04965321  0.13246190  1
  O  O74  1  0.23834990  0.04965321  0.63246190  1
  O  O75  1  0.76165010  0.54965321  0.36753810  1
  O  O76  1  0.73547679  0.31093007  0.61717854  1
  O  O77  1  0.26452321  0.81093007  0.38282146  1
  O  O78  1  0.23547679  0.81093007  0.88282146  1
  O  O79  1  0.76452321  0.31093007  0.11717854  1
  O  O80  1  0.26506008  0.31286399  0.64273432  1
  O  O81  1  0.73493992  0.81286399  0.35726568  1
  O  O82  1  0.76506008  0.81286399  0.85726568  1
  O  O83  1  0.23493992  0.31286399  0.14273432  1
  O  O84  1  0.26721974  0.54698150  0.89335346  1
  O  O85  1  0.73278026  0.04698150  0.10664654  1
  O  O86  1  0.76721974  0.04698150  0.60664654  1
  O  O87  1  0.23278026  0.54698150  0.39335346  1
