# generated using pymatgen
data_Mg2Sc4C
_symmetry_space_group_name_H-M   'P 1'
_cell_length_a   4.63922123
_cell_length_b   4.63922123
_cell_length_c   13.93745837
_cell_angle_alpha   99.58031372
_cell_angle_beta   99.58031372
_cell_angle_gamma   90.00000000
_symmetry_Int_Tables_number   1
_chemical_formula_structural   Mg2Sc4C
_chemical_formula_sum   'Mg4 Sc8 C2'
_cell_volume   291.54004148
_cell_formula_units_Z   2
loop_
 _symmetry_equiv_pos_site_id
 _symmetry_equiv_pos_as_xyz
  1  'x, y, z'
loop_
 _atom_site_type_symbol
 _atom_site_label
 _atom_site_symmetry_multiplicity
 _atom_site_fract_x
 _atom_site_fract_y
 _atom_site_fract_z
 _atom_site_occupancy
  Mg  Mg0  1  0.41425771  0.41425771  0.82851542  1
  Mg  Mg1  1  0.66425771  0.16425771  0.32851542  1
  Mg  Mg2  1  0.83574229  0.33574229  0.67148458  1
  Mg  Mg3  1  0.58574229  0.58574229  0.17148458  1
  Sc  Sc4  1  0.75079997  0.75079997  0.50159993  1
  Sc  Sc5  1  0.00079997  0.50079997  0.00159993  1
  Sc  Sc6  1  0.49920003  0.99920003  0.99840007  1
  Sc  Sc7  1  0.24920003  0.24920003  0.49840007  1
  Sc  Sc8  1  0.08177207  0.08177207  0.16354414  1
  Sc  Sc9  1  0.33177207  0.83177207  0.66354414  1
  Sc  Sc10  1  0.16822793  0.66822793  0.33645586  1
  Sc  Sc11  1  0.91822793  0.91822793  0.83645586  1
  C  C12  1  0.25000000  0.75000000  0.50000000  1
  C  C13  1  0.00000000  0.00000000  0.00000000  1
