# generated using pymatgen
data_MgSc11C7
_symmetry_space_group_name_H-M   'P 1'
_cell_length_a   8.81791771
_cell_length_b   8.81791771
_cell_length_c   16.30818711
_cell_angle_alpha   90.00000000
_cell_angle_beta   90.00000000
_cell_angle_gamma   98.11490929
_symmetry_Int_Tables_number   1
_chemical_formula_structural   MgSc11C7
_chemical_formula_sum   'Mg4 Sc44 C28'
_cell_volume   1255.35698399
_cell_formula_units_Z   4
loop_
 _symmetry_equiv_pos_site_id
 _symmetry_equiv_pos_as_xyz
  1  'x, y, z'
loop_
 _atom_site_type_symbol
 _atom_site_label
 _atom_site_symmetry_multiplicity
 _atom_site_fract_x
 _atom_site_fract_y
 _atom_site_fract_z
 _atom_site_occupancy
  Mg  Mg0  1  0.08151798  0.08151798  0.57827197  1
  Mg  Mg1  1  0.91848202  0.91848202  0.42172803  1
  Mg  Mg2  1  0.41848202  0.41848202  0.07827197  1
  Mg  Mg3  1  0.58151798  0.58151798  0.92172803  1
  Sc  Sc4  1  0.21382426  0.47227391  0.58203032  1
  Sc  Sc5  1  0.52772609  0.78617574  0.41796968  1
  Sc  Sc6  1  0.02772609  0.28617574  0.08203032  1
  Sc  Sc7  1  0.71382426  0.97227391  0.91796968  1
  Sc  Sc8  1  0.78617574  0.52772609  0.41796968  1
  Sc  Sc9  1  0.47227391  0.21382426  0.58203032  1
  Sc  Sc10  1  0.97227391  0.71382426  0.91796968  1
  Sc  Sc11  1  0.28617574  0.02772609  0.08203032  1
  Sc  Sc12  1  0.36558367  0.62721392  0.74384833  1
  Sc  Sc13  1  0.37278608  0.63441633  0.25615167  1
  Sc  Sc14  1  0.87278608  0.13441633  0.24384833  1
  Sc  Sc15  1  0.86558367  0.12721392  0.75615167  1
  Sc  Sc16  1  0.63441633  0.37278608  0.25615167  1
  Sc  Sc17  1  0.62721392  0.36558367  0.74384833  1
  Sc  Sc18  1  0.12721392  0.86558367  0.75615167  1
  Sc  Sc19  1  0.13441633  0.87278608  0.24384833  1
  Sc  Sc20  1  0.82321055  0.34540456  0.58317177  1
  Sc  Sc21  1  0.65459544  0.17678945  0.41682823  1
  Sc  Sc22  1  0.15459544  0.67678945  0.08317177  1
  Sc  Sc23  1  0.32321055  0.84540456  0.91682823  1
  Sc  Sc24  1  0.17678945  0.65459544  0.41682823  1
  Sc  Sc25  1  0.34540456  0.82321055  0.58317177  1
  Sc  Sc26  1  0.84540456  0.32321055  0.91682823  1
  Sc  Sc27  1  0.67678945  0.15459544  0.08317177  1
  Sc  Sc28  1  0.96364794  0.68842922  0.58590989  1
  Sc  Sc29  1  0.31157078  0.03635206  0.41409011  1
  Sc  Sc30  1  0.81157078  0.53635206  0.08590989  1
  Sc  Sc31  1  0.46364794  0.18842922  0.91409011  1
  Sc  Sc32  1  0.03635206  0.31157078  0.41409011  1
  Sc  Sc33  1  0.68842922  0.96364794  0.58590989  1
  Sc  Sc34  1  0.18842922  0.46364794  0.91409011  1
  Sc  Sc35  1  0.53635206  0.81157078  0.08590989  1
  Sc  Sc36  1  0.23984780  0.23984780  0.74979903  1
  Sc  Sc37  1  0.76015220  0.76015220  0.25020097  1
  Sc  Sc38  1  0.26015220  0.26015220  0.24979903  1
  Sc  Sc39  1  0.73984780  0.73984780  0.75020097  1
  Sc  Sc40  1  0.07172761  0.07172761  0.91094398  1
  Sc  Sc41  1  0.92827239  0.92827239  0.08905602  1
  Sc  Sc42  1  0.42827239  0.42827239  0.41094398  1
  Sc  Sc43  1  0.57172761  0.57172761  0.58905602  1
  Sc  Sc44  1  0.01453142  0.51453142  0.75000000  1
  Sc  Sc45  1  0.48546858  0.98546858  0.25000000  1
  Sc  Sc46  1  0.98546858  0.48546858  0.25000000  1
  Sc  Sc47  1  0.51453142  0.01453142  0.75000000  1
  C  C48  1  0.40525545  0.40525545  0.67710657  1
  C  C49  1  0.59474455  0.59474455  0.32289343  1
  C  C50  1  0.09474455  0.09474455  0.17710657  1
  C  C51  1  0.90525545  0.90525545  0.82289343  1
  C  C52  1  0.04361414  0.29959813  0.82554993  1
  C  C53  1  0.70040187  0.95638586  0.17445007  1
  C  C54  1  0.20040187  0.45638586  0.32554993  1
  C  C55  1  0.54361414  0.79959813  0.67445007  1
  C  C56  1  0.95638586  0.70040187  0.17445007  1
  C  C57  1  0.29959813  0.04361414  0.82554993  1
  C  C58  1  0.79959813  0.54361414  0.67445007  1
  C  C59  1  0.45638586  0.20040187  0.32554993  1
  C  C60  1  0.37872163  0.62127837  0.50000000  1
  C  C61  1  0.87872163  0.12127837  0.00000000  1
  C  C62  1  0.62127837  0.37872163  0.50000000  1
  C  C63  1  0.12127837  0.87872163  0.00000000  1
  C  C64  1  0.16825136  0.67284053  0.66049394  1
  C  C65  1  0.32715947  0.83174864  0.33950606  1
  C  C66  1  0.82715947  0.33174864  0.16049394  1
  C  C67  1  0.66825136  0.17284053  0.83950606  1
  C  C68  1  0.83174864  0.32715947  0.33950606  1
  C  C69  1  0.67284053  0.16825136  0.66049394  1
  C  C70  1  0.17284053  0.66825136  0.83950606  1
  C  C71  1  0.33174864  0.82715947  0.16049394  1
  C  C72  1  0.00000000  0.50000000  0.50000000  1
  C  C73  1  0.50000000  0.00000000  0.50000000  1
  C  C74  1  0.00000000  0.50000000  0.00000000  1
  C  C75  1  0.50000000  0.00000000  0.00000000  1
