# generated using pymatgen
data_Mn2(SeO4)3
_symmetry_space_group_name_H-M   P-1
_cell_length_a   8.55542996
_cell_length_b   8.76082896
_cell_length_c   8.93833672
_cell_angle_alpha   115.92398854
_cell_angle_beta   90.38151308
_cell_angle_gamma   118.86674457
_symmetry_Int_Tables_number   2
_chemical_formula_structural   Mn2(SeO4)3
_chemical_formula_sum   'Mn4 Se6 O24'
_cell_volume   507.10954137
_cell_formula_units_Z   2
loop_
 _symmetry_equiv_pos_site_id
 _symmetry_equiv_pos_as_xyz
  1  'x, y, z'
  2  '-x, -y, -z'
loop_
 _atom_site_type_symbol
 _atom_site_label
 _atom_site_symmetry_multiplicity
 _atom_site_fract_x
 _atom_site_fract_y
 _atom_site_fract_z
 _atom_site_occupancy
  Mn  Mn0  2  0.14792279  0.28504334  0.42990531  1
  Mn  Mn1  2  0.35191451  0.69614499  0.05284760  1
  Se  Se2  2  0.03151660  0.49794624  0.25057663  1
  Se  Se3  2  0.24901732  0.20810868  0.75602450  1
  Se  Se4  2  0.46197489  0.21306062  0.24806538  1
  O  O5  2  0.01249444  0.63593369  0.44092035  1
  O  O6  2  0.12147026  0.37169918  0.26449779  1
  O  O7  2  0.12455991  0.98765623  0.74320936  1
  O  O8  2  0.17436669  0.68505726  0.89918805  1
  O  O9  2  0.17881752  0.66987820  0.20227296  1
  O  O10  2  0.19653798  0.17498662  0.55686675  1
  O  O11  2  0.21004685  0.37380852  0.90274110  1
  O  O12  2  0.24295181  0.14635911  0.25741622  1
  O  O13  2  0.38488107  0.58483797  0.56938151  1
  O  O14  2  0.47206728  0.26410078  0.08337293  1
  O  O15  2  0.47762086  0.28968412  0.78736467  1
  O  O16  2  0.48565036  0.02411294  0.20641289  1
