# generated using pymatgen
data_Mn2(SeO4)3
_symmetry_space_group_name_H-M   'P 1'
_cell_length_a   8.55542996
_cell_length_b   8.76082896
_cell_length_c   9.37998432
_cell_angle_alpha   85.58028772
_cell_angle_beta   62.94522910
_cell_angle_gamma   118.86674457
_symmetry_Int_Tables_number   1
_chemical_formula_structural   Mn2(SeO4)3
_chemical_formula_sum   'Mn4 Se6 O24'
_cell_volume   507.10954137
_cell_formula_units_Z   2
loop_
 _symmetry_equiv_pos_site_id
 _symmetry_equiv_pos_as_xyz
  1  'x, y, z'
loop_
 _atom_site_type_symbol
 _atom_site_label
 _atom_site_symmetry_multiplicity
 _atom_site_fract_x
 _atom_site_fract_y
 _atom_site_fract_z
 _atom_site_occupancy
  Mn  Mn0  1  0.28198252  0.14486197  0.57009469  1
  Mn  Mn1  1  0.71801748  0.85513803  0.42990531  1
  Mn  Mn2  1  0.70093309  0.35670261  0.94715240  1
  Mn  Mn3  1  0.29906691  0.64329739  0.05284760  1
  Se  Se4  1  0.21390951  0.96499524  0.24806538  1
  Se  Se5  1  0.50700719  0.54791583  0.24397550  1
  Se  Se6  1  0.78093997  0.24736961  0.25057663  1
  Se  Se7  1  0.78609049  0.03500476  0.75193462  1
  Se  Se8  1  0.49299281  0.45208417  0.75602450  1
  Se  Se9  1  0.21906003  0.75263039  0.74942337  1
  O  O10  1  0.18450044  0.98454354  0.43061849  1
  O  O11  1  0.36032877  0.38188013  0.44313325  1
  O  O12  1  0.57157409  0.19501334  0.44092035  1
  O  O13  1  0.81549956  0.01545646  0.56938151  1
  O  O14  1  0.63967123  0.61811987  0.55686675  1
  O  O15  1  0.42842591  0.80498666  0.55907965  1
  O  O16  1  0.98553559  0.88894289  0.25741622  1
  O  O17  1  0.61864946  0.75555313  0.25679064  1
  O  O18  1  0.85697247  0.10720139  0.26449779  1
  O  O19  1  0.01446441  0.11105711  0.74258378  1
  O  O20  1  0.38135054  0.24444687  0.74320936  1
  O  O21  1  0.14302753  0.89279861  0.73550221  1
  O  O22  1  0.27923747  0.81770005  0.20641289  1
  O  O23  1  0.30974381  0.49768056  0.21263533  1
  O  O24  1  0.97654456  0.46760524  0.20227296  1
  O  O25  1  0.72076253  0.18229995  0.79358711  1
  O  O26  1  0.69025619  0.50231944  0.78736467  1
  O  O27  1  0.02345544  0.53239476  0.79772704  1
  O  O28  1  0.38869435  0.18072785  0.08337293  1
  O  O29  1  0.69269425  0.52893258  0.09725890  1
  O  O30  1  0.72482137  0.21413079  0.10081195  1
  O  O31  1  0.61130565  0.81927215  0.91662707  1
  O  O32  1  0.30730575  0.47106742  0.90274110  1
  O  O33  1  0.27517863  0.78586921  0.89918805  1
