# generated using pymatgen
data_MnSe2O7
_symmetry_space_group_name_H-M   'P 1'
_cell_length_a   5.40202208
_cell_length_b   8.64583433
_cell_length_c   13.60784203
_cell_angle_alpha   90.00000000
_cell_angle_beta   90.00000000
_cell_angle_gamma   87.95408687
_symmetry_Int_Tables_number   1
_chemical_formula_structural   MnSe2O7
_chemical_formula_sum   'Mn4 Se8 O28'
_cell_volume   635.14895823
_cell_formula_units_Z   4
loop_
 _symmetry_equiv_pos_site_id
 _symmetry_equiv_pos_as_xyz
  1  'x, y, z'
loop_
 _atom_site_type_symbol
 _atom_site_label
 _atom_site_symmetry_multiplicity
 _atom_site_fract_x
 _atom_site_fract_y
 _atom_site_fract_z
 _atom_site_occupancy
  Mn  Mn0  1  0.80778873  0.33447449  0.34841885  1
  Mn  Mn1  1  0.30778873  0.83447449  0.15158115  1
  Mn  Mn2  1  0.19221127  0.66552551  0.65158115  1
  Mn  Mn3  1  0.69221127  0.16552551  0.84841885  1
  Se  Se4  1  0.31156298  0.42283182  0.18881777  1
  Se  Se5  1  0.81156298  0.92283182  0.31118223  1
  Se  Se6  1  0.68843702  0.57716818  0.81118223  1
  Se  Se7  1  0.18843702  0.07716818  0.68881777  1
  Se  Se8  1  0.32499449  0.31396820  0.51830917  1
  Se  Se9  1  0.82499449  0.81396820  0.98169083  1
  Se  Se10  1  0.67500551  0.68603180  0.48169083  1
  Se  Se11  1  0.17500551  0.18603180  0.01830917  1
  O  O12  1  0.32686616  0.35865117  0.05998749  1
  O  O13  1  0.82686616  0.85865117  0.44001251  1
  O  O14  1  0.67313384  0.64134883  0.94001251  1
  O  O15  1  0.17313384  0.14134883  0.55998749  1
  O  O16  1  0.90201698  0.24876653  0.97748688  1
  O  O17  1  0.40201698  0.74876653  0.52251312  1
  O  O18  1  0.09798302  0.75123347  0.02251312  1
  O  O19  1  0.59798302  0.25123347  0.47748688  1
  O  O20  1  0.01691577  0.41723316  0.21950216  1
  O  O21  1  0.51691577  0.91723316  0.28049784  1
  O  O22  1  0.98308423  0.58276684  0.78049784  1
  O  O23  1  0.48308423  0.08276684  0.71950216  1
  O  O24  1  0.49839331  0.30144848  0.24938122  1
  O  O25  1  0.99839331  0.80144848  0.25061878  1
  O  O26  1  0.50160669  0.69855152  0.75061878  1
  O  O27  1  0.00160669  0.19855152  0.74938122  1
  O  O28  1  0.57515291  0.40433127  0.82446574  1
  O  O29  1  0.07515291  0.90433127  0.67553426  1
  O  O30  1  0.42484709  0.59566873  0.17553426  1
  O  O31  1  0.92484709  0.09566873  0.32446574  1
  O  O32  1  0.34296598  0.43062597  0.61414860  1
  O  O33  1  0.84296598  0.93062597  0.88585140  1
  O  O34  1  0.65703402  0.56937403  0.38585140  1
  O  O35  1  0.15703402  0.06937403  0.11414860  1
  O  O36  1  0.13772698  0.37897652  0.43091860  1
  O  O37  1  0.63772698  0.87897652  0.06908140  1
  O  O38  1  0.86227302  0.62102348  0.56908140  1
  O  O39  1  0.36227302  0.12102348  0.93091860  1
