# generated using pymatgen
data_MnSeO3
_symmetry_space_group_name_H-M   'P 1'
_cell_length_a   9.68487553
_cell_length_b   9.68487553
_cell_length_c   15.69155857
_cell_angle_alpha   73.12627625
_cell_angle_beta   73.12627625
_cell_angle_gamma   65.32714505
_symmetry_Int_Tables_number   1
_chemical_formula_structural   MnSeO3
_chemical_formula_sum   'Mn16 Se16 O48'
_cell_volume   1255.43717091
_cell_formula_units_Z   16
loop_
 _symmetry_equiv_pos_site_id
 _symmetry_equiv_pos_as_xyz
  1  'x, y, z'
loop_
 _atom_site_type_symbol
 _atom_site_label
 _atom_site_symmetry_multiplicity
 _atom_site_fract_x
 _atom_site_fract_y
 _atom_site_fract_z
 _atom_site_occupancy
  Mn  Mn0  1  0.94860510  0.18845235  0.46779152  1
  Mn  Mn1  1  0.81154765  0.05139490  0.03220848  1
  Mn  Mn2  1  0.05139490  0.81154765  0.53220848  1
  Mn  Mn3  1  0.18845235  0.94860510  0.96779152  1
  Mn  Mn4  1  0.89008027  0.63351975  0.40678939  1
  Mn  Mn5  1  0.36648025  0.10991973  0.09321061  1
  Mn  Mn6  1  0.10991973  0.36648025  0.59321061  1
  Mn  Mn7  1  0.63351975  0.89008027  0.90678939  1
  Mn  Mn8  1  0.87593695  0.58959778  0.08360541  1
  Mn  Mn9  1  0.41040222  0.12406305  0.41639459  1
  Mn  Mn10  1  0.12406305  0.41040222  0.91639459  1
  Mn  Mn11  1  0.58959778  0.87593695  0.58360541  1
  Mn  Mn12  1  0.12738551  0.32473771  0.25872335  1
  Mn  Mn13  1  0.67526229  0.87261449  0.24127665  1
  Mn  Mn14  1  0.87261449  0.67526229  0.74127665  1
  Mn  Mn15  1  0.32473771  0.12738551  0.75872335  1
  Se  Se16  1  0.23690070  0.51155218  0.39774302  1
  Se  Se17  1  0.48844782  0.76309930  0.10225698  1
  Se  Se18  1  0.76309930  0.48844782  0.60225698  1
  Se  Se19  1  0.51155218  0.23690070  0.89774302  1
  Se  Se20  1  0.97015793  0.20364924  0.13332003  1
  Se  Se21  1  0.79635076  0.02984207  0.36667997  1
  Se  Se22  1  0.02984207  0.79635076  0.86667997  1
  Se  Se23  1  0.20364924  0.97015793  0.63332003  1
  Se  Se24  1  0.05978915  0.71166484  0.15108877  1
  Se  Se25  1  0.28833516  0.94021085  0.34891123  1
  Se  Se26  1  0.94021085  0.28833516  0.84891123  1
  Se  Se27  1  0.71166484  0.05978915  0.65108877  1
  Se  Se28  1  0.71645431  0.47939933  0.31540651  1
  Se  Se29  1  0.52060067  0.28354569  0.18459349  1
  Se  Se30  1  0.28354569  0.52060067  0.68459349  1
  Se  Se31  1  0.47939933  0.71645431  0.81540651  1
  O  O32  1  0.08165031  0.61026983  0.47626963  1
  O  O33  1  0.38973017  0.91834969  0.02373037  1
  O  O34  1  0.91834969  0.38973017  0.52373037  1
  O  O35  1  0.61026983  0.08165031  0.97626963  1
  O  O36  1  0.28594752  0.33364477  0.47119501  1
  O  O37  1  0.66635523  0.71405248  0.02880499  1
  O  O38  1  0.71405248  0.66635523  0.52880499  1
  O  O39  1  0.33364477  0.28594752  0.97119501  1
  O  O40  1  0.12227273  0.49814316  0.33584738  1
  O  O41  1  0.50185684  0.87772727  0.16415262  1
  O  O42  1  0.87772727  0.50185684  0.66415262  1
  O  O43  1  0.49814316  0.12227273  0.83584738  1
  O  O44  1  0.97995898  0.36166331  0.04835447  1
  O  O45  1  0.63833669  0.02004102  0.45164553  1
  O  O46  1  0.02004102  0.63833669  0.95164553  1
  O  O47  1  0.36166331  0.97995898  0.54835447  1
  O  O48  1  0.01721925  0.05662304  0.07631296  1
  O  O49  1  0.94337696  0.98278075  0.42368704  1
  O  O50  1  0.98278075  0.94337696  0.92368704  1
  O  O51  1  0.05662304  0.01721925  0.57631296  1
  O  O52  1  0.13707856  0.15665497  0.17384681  1
  O  O53  1  0.84334503  0.86292144  0.32615319  1
  O  O54  1  0.86292144  0.84334503  0.82615319  1
  O  O55  1  0.15665497  0.13707856  0.67384681  1
  O  O56  1  0.19140388  0.73044558  0.05426369  1
  O  O57  1  0.26955442  0.80859612  0.44573631  1
  O  O58  1  0.80859612  0.26955442  0.94573631  1
  O  O59  1  0.73044558  0.19140388  0.55426369  1
  O  O60  1  0.05846584  0.52950260  0.15801834  1
  O  O61  1  0.47049740  0.94153416  0.34198166  1
  O  O62  1  0.94153416  0.47049740  0.84198166  1
  O  O63  1  0.52950260  0.05846584  0.65801834  1
  O  O64  1  0.87007680  0.81092567  0.12127312  1
  O  O65  1  0.18907433  0.12992320  0.37872688  1
  O  O66  1  0.12992320  0.18907433  0.87872688  1
  O  O67  1  0.81092567  0.87007680  0.62127312  1
  O  O68  1  0.72445666  0.50610349  0.20223929  1
  O  O69  1  0.49389651  0.27554334  0.29776071  1
  O  O70  1  0.27554334  0.49389651  0.79776071  1
  O  O71  1  0.50610349  0.72445666  0.70223929  1
  O  O72  1  0.89408998  0.33402698  0.33545539  1
  O  O73  1  0.66597302  0.10591002  0.16454461  1
  O  O74  1  0.10591002  0.66597302  0.66454461  1
  O  O75  1  0.33402698  0.89408998  0.83545539  1
  O  O76  1  0.75175792  0.63846472  0.32098609  1
  O  O77  1  0.36153528  0.24824208  0.17901391  1
  O  O78  1  0.24824208  0.36153528  0.67901391  1
  O  O79  1  0.63846472  0.75175792  0.82098609  1
