# generated using pymatgen
data_MnSeO3
_symmetry_space_group_name_H-M   C2/c
_cell_length_a   16.30650407
_cell_length_b   10.45395530
_cell_length_c   15.69155857
_cell_angle_alpha   90.00000000
_cell_angle_beta   110.16901274
_cell_angle_gamma   90.00000000
_symmetry_Int_Tables_number   15
_chemical_formula_structural   MnSeO3
_chemical_formula_sum   'Mn32 Se32 O96'
_cell_volume   2510.87434182
_cell_formula_units_Z   32
loop_
 _symmetry_equiv_pos_site_id
 _symmetry_equiv_pos_as_xyz
  1  'x, y, z'
  2  '-x, -y, -z'
  3  '-x, y, -z+1/2'
  4  'x, -y, z+1/2'
  5  'x+1/2, y+1/2, z'
  6  '-x+1/2, -y+1/2, -z'
  7  '-x+1/2, y+1/2, -z+1/2'
  8  'x+1/2, -y+1/2, z+1/2'
loop_
 _atom_site_type_symbol
 _atom_site_label
 _atom_site_symmetry_multiplicity
 _atom_site_fract_x
 _atom_site_fract_y
 _atom_site_fract_z
 _atom_site_occupancy
  Mn  Mn0  8  0.06852873  0.11992362  0.03220848  1
  Mn  Mn1  8  0.22606161  0.09867610  0.24127665  1
  Mn  Mn2  8  0.23276737  0.35683041  0.41639459  1
  Mn  Mn3  8  0.23819999  0.12828026  0.90678939  1
  Se  Se4  8  0.08690358  0.11674566  0.36667997  1
  Se  Se5  8  0.09792682  0.38147251  0.18459349  1
  Se  Se6  8  0.11427300  0.17406216  0.65108877  1
  Se  Se7  8  0.12577356  0.36267426  0.89774302  1
  O  O8  8  0.03692114  0.01970189  0.42368704  1
  O  O9  8  0.03907527  0.23047915  0.55426369  1
  O  O10  8  0.11405848  0.21996850  0.16454461  1
  O  O11  8  0.11528008  0.39082342  0.29776071  1
  O  O12  8  0.14686677  0.00978821  0.32615319  1
  O  O13  8  0.15403993  0.23569024  0.97626963  1
  O  O14  8  0.15949877  0.02957557  0.62127312  1
  O  O15  8  0.17081115  0.19085216  0.45164553  1
  O  O16  8  0.18979205  0.31206478  0.83584738  1
  O  O17  8  0.19020385  0.47615137  0.97119501  1
  O  O18  8  0.19511132  0.44335340  0.17901391  1
  O  O19  8  0.20601578  0.26448162  0.65801834  1
