# generated using pymatgen
data_Na2Fe3(P2O7)2
_symmetry_space_group_name_H-M   'P 1'
_cell_length_a   7.56407552
_cell_length_b   8.37885647
_cell_length_c   9.75432474
_cell_angle_alpha   90.00000000
_cell_angle_beta   111.37115801
_cell_angle_gamma   90.00000000
_symmetry_Int_Tables_number   1
_chemical_formula_structural   Na2Fe3(P2O7)2
_chemical_formula_sum   'Na4 Fe6 P8 O28'
_cell_volume   575.70386737
_cell_formula_units_Z   2
loop_
 _symmetry_equiv_pos_site_id
 _symmetry_equiv_pos_as_xyz
  1  'x, y, z'
loop_
 _atom_site_type_symbol
 _atom_site_label
 _atom_site_symmetry_multiplicity
 _atom_site_fract_x
 _atom_site_fract_y
 _atom_site_fract_z
 _atom_site_occupancy
  Na  Na0  1  0.68731098  0.41949876  0.12298681  1
  Na  Na1  1  0.31268902  0.91949876  0.37701319  1
  Na  Na2  1  0.31268902  0.58050124  0.87701319  1
  Na  Na3  1  0.68731098  0.08050124  0.62298681  1
  Fe  Fe4  1  0.81658743  0.38409803  0.48759042  1
  Fe  Fe5  1  0.18341257  0.88409803  0.01240958  1
  Fe  Fe6  1  0.18341257  0.61590197  0.51240958  1
  Fe  Fe7  1  0.81658743  0.11590197  0.98759042  1
  Fe  Fe8  1  0.00000000  0.50000000  0.00000000  1
  Fe  Fe9  1  0.00000000  0.00000000  0.50000000  1
  P  P10  1  0.10592076  0.29801695  0.30466472  1
  P  P11  1  0.89407924  0.79801695  0.19533528  1
  P  P12  1  0.89407924  0.70198305  0.69533528  1
  P  P13  1  0.10592076  0.20198305  0.80466472  1
  P  P14  1  0.39517365  0.53306838  0.28704348  1
  P  P15  1  0.60482635  0.03306838  0.21295652  1
  P  P16  1  0.60482635  0.46693162  0.71295652  1
  P  P17  1  0.39517365  0.96693162  0.78704348  1
  O  O18  1  0.31051334  0.36063829  0.31397728  1
  O  O19  1  0.68948666  0.86063829  0.18602272  1
  O  O20  1  0.68948666  0.63936171  0.68602272  1
  O  O21  1  0.31051334  0.13936171  0.81397728  1
  O  O22  1  0.02195353  0.42022022  0.38380855  1
  O  O23  1  0.97804647  0.92022022  0.11619145  1
  O  O24  1  0.97804647  0.57977978  0.61619145  1
  O  O25  1  0.02195353  0.07977978  0.88380855  1
  O  O26  1  0.98590826  0.29460403  0.13724335  1
  O  O27  1  0.01409174  0.79460403  0.36275665  1
  O  O28  1  0.01409174  0.70539597  0.86275665  1
  O  O29  1  0.98590826  0.20539597  0.63724335  1
  O  O30  1  0.60265301  0.49409809  0.31367846  1
  O  O31  1  0.39734699  0.99409809  0.18632154  1
  O  O32  1  0.39734699  0.50590191  0.68632154  1
  O  O33  1  0.60265301  0.00590191  0.81367846  1
  O  O34  1  0.36688420  0.64991040  0.39760010  1
  O  O35  1  0.63311580  0.14991040  0.10239990  1
  O  O36  1  0.63311580  0.35008960  0.60239990  1
  O  O37  1  0.36688420  0.85008960  0.89760010  1
  O  O38  1  0.28459956  0.58475042  0.12649245  1
  O  O39  1  0.71540044  0.08475042  0.37350755  1
  O  O40  1  0.71540044  0.41524958  0.87350755  1
  O  O41  1  0.28459956  0.91524958  0.62649245  1
  O  O42  1  0.13588954  0.13708554  0.38023041  1
  O  O43  1  0.86411046  0.63708554  0.11976959  1
  O  O44  1  0.86411046  0.86291446  0.61976959  1
  O  O45  1  0.13588954  0.36291446  0.88023041  1
