# generated using pymatgen
data_Na2FeP2O7
_symmetry_space_group_name_H-M   P1
_cell_length_a   6.57522716
_cell_length_b   9.63190971
_cell_length_c   11.15864675
_cell_angle_alpha   64.91234255
_cell_angle_beta   86.53389799
_cell_angle_gamma   73.24044521
_symmetry_Int_Tables_number   1
_chemical_formula_structural   Na2FeP2O7
_chemical_formula_sum   'Na8 Fe4 P8 O28'
_cell_volume   611.28460184
_cell_formula_units_Z   4
loop_
 _symmetry_equiv_pos_site_id
 _symmetry_equiv_pos_as_xyz
  1  'x, y, z'
loop_
 _atom_site_type_symbol
 _atom_site_label
 _atom_site_symmetry_multiplicity
 _atom_site_fract_x
 _atom_site_fract_y
 _atom_site_fract_z
 _atom_site_occupancy
  Na  Na0  1  0.02843992  0.81705141  0.47938802  1
  Na  Na1  1  0.18285075  0.85335087  0.10531713  1
  Na  Na2  1  0.39284463  0.50937099  0.03089041  1
  Na  Na3  1  0.40075862  0.12894270  0.34543880  1
  Na  Na4  1  0.59306881  0.87569946  0.65092857  1
  Na  Na5  1  0.78818519  0.14512559  0.88882975  1
  Na  Na6  1  0.84524858  0.48622639  0.94722209  1
  Na  Na7  1  0.97324600  0.17956408  0.52317540  1
  Fe  Fe8  1  0.27713122  0.10606194  0.78150631  1
  Fe  Fe9  1  0.35977066  0.49520705  0.73816014  1
  Fe  Fe10  1  0.64656932  0.49706103  0.26687091  1
  Fe  Fe11  1  0.72381940  0.88579150  0.22381165  1
  P  P12  1  0.07207955  0.81816814  0.79119388  1
  P  P13  1  0.12285379  0.54291316  0.31643443  1
  P  P14  1  0.29614083  0.18520733  0.04161749  1
  P  P15  1  0.42705350  0.29405193  0.54314514  1
  P  P16  1  0.57392342  0.69950494  0.46094753  1
  P  P17  1  0.70689595  0.80515507  0.96169661  1
  P  P18  1  0.87952878  0.44706468  0.68800079  1
  P  P19  1  0.92923639  0.17581533  0.21201573  1
  O  O20  1  0.01844113  0.71484485  0.30066777  1
  O  O21  1  0.03130033  0.53169798  0.70628516  1
  O  O22  1  0.04685057  0.09879206  0.34816899  1
  O  O23  1  0.08671943  0.27040842  0.10125141  1
  O  O24  1  0.10289419  0.93670179  0.84118434  1
  O  O25  1  0.21859072  0.10440568  0.96915845  1
  O  O26  1  0.22896210  0.45168691  0.46746323  1
  O  O27  1  0.27729141  0.68312944  0.80861447  1
  O  O28  1  0.30727339  0.53636908  0.22435830  1
  O  O29  1  0.35785652  0.14629418  0.55944202  1
  O  O30  1  0.38114211  0.32360296  0.95012399  1
  O  O31  1  0.38453077  0.67991809  0.54485930  1
  O  O32  1  0.44293686  0.06572172  0.16533616  1
  O  O33  1  0.44831650  0.29088924  0.68172365  1
  O  O34  1  0.55525507  0.69983356  0.32352035  1
  O  O35  1  0.56108343  0.92677527  0.83785250  1
  O  O36  1  0.61732747  0.31235313  0.45973043  1
  O  O37  1  0.62378232  0.66282217  0.04792310  1
  O  O38  1  0.64128908  0.84835470  0.44343282  1
  O  O39  1  0.69760550  0.45021533  0.78281795  1
  O  O40  1  0.72579138  0.31569032  0.18723844  1
  O  O41  1  0.77424847  0.54318945  0.53811965  1
  O  O42  1  0.77898937  0.88560522  0.03626781  1
  O  O43  1  0.89909490  0.05503215  0.16471897  1
  O  O44  1  0.92049957  0.72087835  0.90388986  1
  O  O45  1  0.94878366  0.89644511  0.65666298  1
  O  O46  1  0.96969388  0.45528861  0.30666236  1
  O  O47  1  0.98360457  0.27672067  0.70083478  1
