# generated using pymatgen
data_Na2FeP2O7
_symmetry_space_group_name_H-M   'P 1'
_cell_length_a   6.57522716
_cell_length_b   9.63190971
_cell_length_c   11.23146881
_cell_angle_alpha   115.86977437
_cell_angle_beta   100.79076439
_cell_angle_gamma   73.24044521
_symmetry_Int_Tables_number   1
_chemical_formula_structural   Na2FeP2O7
_chemical_formula_sum   'Na8 Fe4 P8 O28'
_cell_volume   611.28460184
_cell_formula_units_Z   4
loop_
 _symmetry_equiv_pos_site_id
 _symmetry_equiv_pos_as_xyz
  1  'x, y, z'
loop_
 _atom_site_type_symbol
 _atom_site_label
 _atom_site_symmetry_multiplicity
 _atom_site_fract_x
 _atom_site_fract_y
 _atom_site_fract_z
 _atom_site_occupancy
  Na  Na0  1  0.59306881  0.52662803  0.65092857  1
  Na  Na1  1  0.40075862  0.47438149  0.34543880  1
  Na  Na2  1  0.18285075  0.95866800  0.10531713  1
  Na  Na3  1  0.78818519  0.03395534  0.88882975  1
  Na  Na4  1  0.97324600  0.70273948  0.52317540  1
  Na  Na5  1  0.02843992  0.29643943  0.47938802  1
  Na  Na6  1  0.39284463  0.54026140  0.03089041  1
  Na  Na7  1  0.84524858  0.43344848  0.94722209  1
  Fe  Fe8  1  0.64656932  0.76393194  0.26687091  1
  Fe  Fe9  1  0.72381940  0.10960315  0.22381165  1
  Fe  Fe10  1  0.35977066  0.23336719  0.73816014  1
  Fe  Fe11  1  0.27713122  0.88756824  0.78150631  1
  P  P12  1  0.92923639  0.38783106  0.21201573  1
  P  P13  1  0.57392342  0.16045246  0.46094753  1
  P  P14  1  0.29614083  0.22682482  0.04161749  1
  P  P15  1  0.87952878  0.13506547  0.68800079  1
  P  P16  1  0.07207955  0.60936202  0.79119388  1
  P  P17  1  0.42705350  0.83719708  0.54314514  1
  P  P18  1  0.70689595  0.76685168  0.96169661  1
  P  P19  1  0.12285379  0.85934759  0.31643443  1
  O  O20  1  0.08671943  0.37165983  0.10125141  1
  O  O21  1  0.38114211  0.27372694  0.95012399  1
  O  O22  1  0.21859072  0.07356413  0.96915845  1
  O  O23  1  0.44293686  0.23105788  0.16533616  1
  O  O24  1  0.72579138  0.50292875  0.18723844  1
  O  O25  1  0.04685057  0.44696105  0.34816899  1
  O  O26  1  0.89909490  0.21975112  0.16471897  1
  O  O27  1  0.77424847  0.08130910  0.53811965  1
  O  O28  1  0.55525507  0.02335391  0.32352035  1
  O  O29  1  0.64128908  0.29178753  0.44343282  1
  O  O30  1  0.38453077  0.22477738  0.54485930  1
  O  O31  1  0.69760550  0.23303328  0.78281795  1
  O  O32  1  0.98360457  0.97755545  0.70083478  1
  O  O33  1  0.03130033  0.23798313  0.70628516  1
  O  O34  1  0.92049957  0.62476821  0.90388986  1
  O  O35  1  0.62378232  0.71074527  0.04792310  1
  O  O36  1  0.56108343  0.76462777  0.83785250  1
  O  O37  1  0.77898937  0.92187302  0.03626781  1
  O  O38  1  0.27729141  0.49174391  0.80861447  1
  O  O39  1  0.94878366  0.55310809  0.65666298  1
  O  O40  1  0.10289419  0.77788613  0.84118434  1
  O  O41  1  0.22896210  0.91915014  0.46746323  1
  O  O42  1  0.35785652  0.70573620  0.55944202  1
  O  O43  1  0.61732747  0.77208356  0.45973043  1
  O  O44  1  0.44831650  0.97261288  0.68172365  1
  O  O45  1  0.01844113  0.01551262  0.30066777  1
  O  O46  1  0.30727339  0.76072738  0.22435830  1
  O  O47  1  0.96969388  0.76195097  0.30666236  1
