# generated using pymatgen
data_Na2Fe3(P2O7)2
_symmetry_space_group_name_H-M   P2_1/c
_cell_length_a   7.56407552
_cell_length_b   8.37885647
_cell_length_c   9.75432474
_cell_angle_alpha   90.00000000
_cell_angle_beta   111.37115801
_cell_angle_gamma   90.00000000
_symmetry_Int_Tables_number   14
_chemical_formula_structural   Na2Fe3(P2O7)2
_chemical_formula_sum   'Na4 Fe6 P8 O28'
_cell_volume   575.70386737
_cell_formula_units_Z   2
loop_
 _symmetry_equiv_pos_site_id
 _symmetry_equiv_pos_as_xyz
  1  'x, y, z'
  2  '-x, -y, -z'
  3  '-x, y+1/2, -z+1/2'
  4  'x, -y+1/2, z+1/2'
loop_
 _atom_site_type_symbol
 _atom_site_label
 _atom_site_symmetry_multiplicity
 _atom_site_fract_x
 _atom_site_fract_y
 _atom_site_fract_z
 _atom_site_occupancy
  Na  Na0  4  0.31268902  0.58050124  0.87701319  1
  Fe  Fe1  4  0.18341257  0.61590197  0.51240958  1
  Fe  Fe2  2  0.00000000  0.00000000  0.50000000  1
  P  P3  4  0.10592076  0.20198305  0.80466472  1
  P  P4  4  0.39517365  0.53306838  0.28704348  1
  O  O5  4  0.01409174  0.70539597  0.86275665  1
  O  O6  4  0.02195353  0.07977978  0.88380855  1
  O  O7  4  0.13588954  0.13708554  0.38023041  1
  O  O8  4  0.28459956  0.58475042  0.12649245  1
  O  O9  4  0.31051334  0.13936171  0.81397728  1
  O  O10  4  0.36688420  0.64991040  0.39760010  1
  O  O11  4  0.39734699  0.50590191  0.68632154  1
