# generated using pymatgen
data_Na4Fe(PO4)2
_symmetry_space_group_name_H-M   P2_1/c
_cell_length_a   9.04082599
_cell_length_b   11.11971928
_cell_length_c   9.10976819
_cell_angle_alpha   90.00000000
_cell_angle_beta   108.67444210
_cell_angle_gamma   90.00000000
_symmetry_Int_Tables_number   14
_chemical_formula_structural   Na4Fe(PO4)2
_chemical_formula_sum   'Na16 Fe4 P8 O32'
_cell_volume   867.60328089
_cell_formula_units_Z   4
loop_
 _symmetry_equiv_pos_site_id
 _symmetry_equiv_pos_as_xyz
  1  'x, y, z'
  2  '-x, -y, -z'
  3  '-x, y+1/2, -z+1/2'
  4  'x, -y+1/2, z+1/2'
loop_
 _atom_site_type_symbol
 _atom_site_label
 _atom_site_symmetry_multiplicity
 _atom_site_fract_x
 _atom_site_fract_y
 _atom_site_fract_z
 _atom_site_occupancy
  Na  Na0  4  0.12444214  0.64443760  0.63360767  1
  Na  Na1  4  0.33181416  0.14895021  0.33335446  1
  Na  Na2  4  0.37155976  0.66275385  0.39481598  1
  Na  Na3  4  0.49523269  0.58067757  0.74428576  1
  Fe  Fe4  4  0.09694757  0.14626531  0.59126727  1
  P  P5  4  0.23527894  0.10236804  0.95853516  1
  P  P6  4  0.27956685  0.59120048  0.02288556  1
  O  O7  4  0.09411619  0.10036801  0.80333669  1
  O  O8  4  0.13286144  0.66136620  0.03399587  1
  O  O9  4  0.18388400  0.18374616  0.07498606  1
  O  O10  4  0.24552879  0.04809229  0.51308352  1
  O  O11  4  0.27018192  0.52529065  0.52792107  1
  O  O12  4  0.31965657  0.63074351  0.87709124  1
  O  O13  4  0.37896987  0.15554054  0.92387120  1
  O  O14  4  0.41798686  0.61476630  0.17182156  1
