# generated using pymatgen
data_Na4Fe(PO4)2
_symmetry_space_group_name_H-M   'P 1'
_cell_length_a   9.04082599
_cell_length_b   9.10976819
_cell_length_c   11.11971928
_cell_angle_alpha   90.00000000
_cell_angle_beta   90.00000000
_cell_angle_gamma   108.67444210
_symmetry_Int_Tables_number   1
_chemical_formula_structural   Na4Fe(PO4)2
_chemical_formula_sum   'Na16 Fe4 P8 O32'
_cell_volume   867.60328089
_cell_formula_units_Z   4
loop_
 _symmetry_equiv_pos_site_id
 _symmetry_equiv_pos_as_xyz
  1  'x, y, z'
loop_
 _atom_site_type_symbol
 _atom_site_label
 _atom_site_symmetry_multiplicity
 _atom_site_fract_x
 _atom_site_fract_y
 _atom_site_fract_z
 _atom_site_occupancy
  Na  Na0  1  0.87555786  0.86639233  0.85556240  1
  Na  Na1  1  0.12444214  0.63360767  0.35556240  1
  Na  Na2  1  0.12444214  0.13360767  0.14443760  1
  Na  Na3  1  0.87555786  0.36639233  0.64443760  1
  Na  Na4  1  0.62844024  0.60518402  0.66275385  1
  Na  Na5  1  0.37155976  0.89481598  0.16275385  1
  Na  Na6  1  0.37155976  0.39481598  0.33724615  1
  Na  Na7  1  0.62844024  0.10518402  0.83724615  1
  Na  Na8  1  0.50476731  0.75571424  0.91932243  1
  Na  Na9  1  0.49523269  0.74428576  0.41932243  1
  Na  Na10  1  0.49523269  0.24428576  0.08067757  1
  Na  Na11  1  0.50476731  0.25571424  0.58067757  1
  Na  Na12  1  0.66818584  0.66664554  0.14895021  1
  Na  Na13  1  0.33181416  0.83335446  0.64895021  1
  Na  Na14  1  0.33181416  0.33335446  0.85104979  1
  Na  Na15  1  0.66818584  0.16664554  0.35104979  1
  Fe  Fe16  1  0.09694757  0.59126727  0.85373469  1
  Fe  Fe17  1  0.90305243  0.90873273  0.35373469  1
  Fe  Fe18  1  0.90305243  0.40873273  0.14626531  1
  Fe  Fe19  1  0.09694757  0.09126727  0.64626531  1
  P  P20  1  0.72043315  0.97711444  0.59120048  1
  P  P21  1  0.27956685  0.52288556  0.09120048  1
  P  P22  1  0.27956685  0.02288556  0.40879952  1
  P  P23  1  0.72043315  0.47711444  0.90879952  1
  P  P24  1  0.76472106  0.54146484  0.39763196  1
  P  P25  1  0.23527894  0.95853516  0.89763196  1
  P  P26  1  0.23527894  0.45853516  0.60236804  1
  P  P27  1  0.76472106  0.04146484  0.10236804  1
  O  O28  1  0.68034343  0.62290876  0.86925649  1
  O  O29  1  0.31965657  0.87709124  0.36925649  1
  O  O30  1  0.31965657  0.37709124  0.13074351  1
  O  O31  1  0.68034343  0.12290876  0.63074351  1
  O  O32  1  0.58201314  0.82817844  0.61476630  1
  O  O33  1  0.41798686  0.67182156  0.11476630  1
  O  O34  1  0.41798686  0.17182156  0.38523370  1
  O  O35  1  0.58201314  0.32817844  0.88523370  1
  O  O36  1  0.86713856  0.96600413  0.66136620  1
  O  O37  1  0.13286144  0.53399587  0.16136620  1
  O  O38  1  0.13286144  0.03399587  0.33863380  1
  O  O39  1  0.86713856  0.46600413  0.83863380  1
  O  O40  1  0.75447121  0.98691648  0.45190771  1
  O  O41  1  0.24552879  0.51308352  0.95190771  1
  O  O42  1  0.24552879  0.01308352  0.54809229  1
  O  O43  1  0.75447121  0.48691648  0.04809229  1
  O  O44  1  0.62103013  0.57612880  0.34445946  1
  O  O45  1  0.37896987  0.92387120  0.84445946  1
  O  O46  1  0.37896987  0.42387120  0.65554054  1
  O  O47  1  0.62103013  0.07612880  0.15554054  1
  O  O48  1  0.09411619  0.80333669  0.89963199  1
  O  O49  1  0.90588381  0.69666331  0.39963199  1
  O  O50  1  0.90588381  0.19666331  0.10036801  1
  O  O51  1  0.09411619  0.30333669  0.60036801  1
  O  O52  1  0.18388400  0.57498606  0.68374616  1
  O  O53  1  0.81611600  0.92501394  0.18374616  1
  O  O54  1  0.81611600  0.42501394  0.31625384  1
  O  O55  1  0.18388400  0.07498606  0.81625384  1
  O  O56  1  0.72981808  0.97207893  0.97470935  1
  O  O57  1  0.27018192  0.52792107  0.47470935  1
  O  O58  1  0.27018192  0.02792107  0.02529065  1
  O  O59  1  0.72981808  0.47207893  0.52529065  1
