# generated using pymatgen
data_Na9Fe3P8O29
_symmetry_space_group_name_H-M   'P 1'
_cell_length_a   10.16185780
_cell_length_b   10.16185780
_cell_length_c   14.76995085
_cell_angle_alpha   90.00000000
_cell_angle_beta   90.00000000
_cell_angle_gamma   120.00000000
_symmetry_Int_Tables_number   1
_chemical_formula_structural   Na9Fe3P8O29
_chemical_formula_sum   'Na18 Fe6 P16 O58'
_cell_volume   1320.85732491
_cell_formula_units_Z   2
loop_
 _symmetry_equiv_pos_site_id
 _symmetry_equiv_pos_as_xyz
  1  'x, y, z'
loop_
 _atom_site_type_symbol
 _atom_site_label
 _atom_site_symmetry_multiplicity
 _atom_site_fract_x
 _atom_site_fract_y
 _atom_site_fract_z
 _atom_site_occupancy
  Na  Na0  1  0.00000000  0.00000000  0.00000000  1
  Na  Na1  1  0.00000000  0.00000000  0.50000000  1
  Na  Na2  1  0.33333333  0.66666667  0.12080356  1
  Na  Na3  1  0.33333333  0.66666667  0.62080356  1
  Na  Na4  1  0.66666667  0.33333333  0.87919644  1
  Na  Na5  1  0.66666667  0.33333333  0.37919644  1
  Na  Na6  1  0.24770103  0.89367742  0.94220758  1
  Na  Na7  1  0.64597639  0.75229897  0.94220758  1
  Na  Na8  1  0.10632258  0.35402361  0.94220758  1
  Na  Na9  1  0.24770103  0.35402361  0.44220758  1
  Na  Na10  1  0.10632258  0.75229897  0.44220758  1
  Na  Na11  1  0.64597639  0.89367742  0.44220758  1
  Na  Na12  1  0.75229897  0.10632258  0.05779242  1
  Na  Na13  1  0.35402361  0.24770103  0.05779242  1
  Na  Na14  1  0.89367742  0.64597639  0.05779242  1
  Na  Na15  1  0.75229897  0.64597639  0.55779242  1
  Na  Na16  1  0.89367742  0.24770103  0.55779242  1
  Na  Na17  1  0.35402361  0.10632258  0.55779242  1
  Fe  Fe18  1  0.56113204  0.00000000  0.25000000  1
  Fe  Fe19  1  0.43886796  0.43886796  0.25000000  1
  Fe  Fe20  1  0.00000000  0.56113204  0.25000000  1
  Fe  Fe21  1  0.56113204  0.56113204  0.75000000  1
  Fe  Fe22  1  0.00000000  0.43886796  0.75000000  1
  Fe  Fe23  1  0.43886796  0.00000000  0.75000000  1
  P  P24  1  0.33333333  0.66666667  0.36160633  1
  P  P25  1  0.33333333  0.66666667  0.86160633  1
  P  P26  1  0.66666667  0.33333333  0.63839367  1
  P  P27  1  0.66666667  0.33333333  0.13839367  1
  P  P28  1  0.22531352  0.90903977  0.16296341  1
  P  P29  1  0.68372626  0.77468648  0.16296341  1
  P  P30  1  0.09096023  0.31627374  0.16296341  1
  P  P31  1  0.22531352  0.31627374  0.66296341  1
  P  P32  1  0.09096023  0.77468648  0.66296341  1
  P  P33  1  0.68372626  0.90903977  0.66296341  1
  P  P34  1  0.77468648  0.09096023  0.83703659  1
  P  P35  1  0.31627374  0.22531352  0.83703659  1
  P  P36  1  0.90903977  0.68372626  0.83703659  1
  P  P37  1  0.77468648  0.68372626  0.33703659  1
  P  P38  1  0.90903977  0.22531352  0.33703659  1
  P  P39  1  0.31627374  0.09096023  0.33703659  1
  O  O40  1  0.33333333  0.66666667  0.46558214  1
  O  O41  1  0.33333333  0.66666667  0.96558214  1
  O  O42  1  0.66666667  0.33333333  0.53441786  1
  O  O43  1  0.66666667  0.33333333  0.03441786  1
  O  O44  1  0.21462626  0.00000000  0.25000000  1
  O  O45  1  0.78537374  0.78537374  0.25000000  1
  O  O46  1  0.00000000  0.21462626  0.25000000  1
  O  O47  1  0.21462626  0.21462626  0.75000000  1
  O  O48  1  0.00000000  0.78537374  0.75000000  1
  O  O49  1  0.78537374  0.00000000  0.75000000  1
  O  O50  1  0.47627551  0.81172999  0.32578807  1
  O  O51  1  0.33545448  0.52372449  0.32578807  1
  O  O52  1  0.18827001  0.66454552  0.32578807  1
  O  O53  1  0.47627551  0.66454552  0.82578807  1
  O  O54  1  0.18827001  0.52372449  0.82578807  1
  O  O55  1  0.33545448  0.81172999  0.82578807  1
  O  O56  1  0.52372449  0.18827001  0.67421193  1
  O  O57  1  0.66454552  0.47627551  0.67421193  1
  O  O58  1  0.81172999  0.33545448  0.67421193  1
  O  O59  1  0.52372449  0.33545448  0.17421193  1
  O  O60  1  0.81172999  0.47627551  0.17421193  1
  O  O61  1  0.66454552  0.18827001  0.17421193  1
  O  O62  1  0.37549480  0.90679238  0.16900785  1
  O  O63  1  0.53129758  0.62450520  0.16900785  1
  O  O64  1  0.09320762  0.46870242  0.16900785  1
  O  O65  1  0.37549480  0.46870242  0.66900785  1
  O  O66  1  0.09320762  0.62450520  0.66900785  1
  O  O67  1  0.53129758  0.90679238  0.66900785  1
  O  O68  1  0.62450520  0.09320762  0.83099215  1
  O  O69  1  0.46870242  0.37549480  0.83099215  1
  O  O70  1  0.90679238  0.53129758  0.83099215  1
  O  O71  1  0.62450520  0.53129758  0.33099215  1
  O  O72  1  0.90679238  0.37549480  0.33099215  1
  O  O73  1  0.46870242  0.09320762  0.33099215  1
  O  O74  1  0.08917691  0.74599090  0.16623419  1
  O  O75  1  0.65681399  0.91082309  0.16623419  1
  O  O76  1  0.25400910  0.34318601  0.16623419  1
  O  O77  1  0.08917691  0.34318601  0.66623419  1
  O  O78  1  0.25400910  0.91082309  0.66623419  1
  O  O79  1  0.65681399  0.74599090  0.66623419  1
  O  O80  1  0.91082309  0.25400910  0.83376581  1
  O  O81  1  0.34318601  0.08917691  0.83376581  1
  O  O82  1  0.74599090  0.65681399  0.83376581  1
  O  O83  1  0.91082309  0.65681399  0.33376581  1
  O  O84  1  0.74599090  0.08917691  0.33376581  1
  O  O85  1  0.34318601  0.25400910  0.33376581  1
  O  O86  1  0.21490955  0.98929308  0.07870936  1
  O  O87  1  0.77438353  0.78509045  0.07870936  1
  O  O88  1  0.01070692  0.22561647  0.07870936  1
  O  O89  1  0.21490955  0.22561647  0.57870936  1
  O  O90  1  0.01070692  0.78509045  0.57870936  1
  O  O91  1  0.77438353  0.98929308  0.57870936  1
  O  O92  1  0.78509045  0.01070692  0.92129064  1
  O  O93  1  0.22561647  0.21490955  0.92129064  1
  O  O94  1  0.98929308  0.77438353  0.92129064  1
  O  O95  1  0.78509045  0.77438353  0.42129064  1
  O  O96  1  0.98929308  0.21490955  0.42129064  1
  O  O97  1  0.22561647  0.01070692  0.42129064  1
