# generated using pymatgen
data_Pr11(Ru2C3)6
_symmetry_space_group_name_H-M   'P 1'
_cell_length_a   9.43765573
_cell_length_b   9.43765573
_cell_length_c   9.43765573
_cell_angle_alpha   109.47122063
_cell_angle_beta   109.47122063
_cell_angle_gamma   109.47122063
_symmetry_Int_Tables_number   1
_chemical_formula_structural   Pr11(Ru2C3)6
_chemical_formula_sum   'Pr11 Ru12 C18'
_cell_volume   647.09866196
_cell_formula_units_Z   1
loop_
 _symmetry_equiv_pos_site_id
 _symmetry_equiv_pos_as_xyz
  1  'x, y, z'
loop_
 _atom_site_type_symbol
 _atom_site_label
 _atom_site_symmetry_multiplicity
 _atom_site_fract_x
 _atom_site_fract_y
 _atom_site_fract_z
 _atom_site_occupancy
  Pr  Pr0  1  0.00000000  0.00000000  0.00000000  1
  Pr  Pr1  1  0.25000000  0.50000000  0.75000000  1
  Pr  Pr2  1  0.50000000  0.75000000  0.25000000  1
  Pr  Pr3  1  0.75000000  0.25000000  0.50000000  1
  Pr  Pr4  1  0.50000000  0.25000000  0.75000000  1
  Pr  Pr5  1  0.75000000  0.50000000  0.25000000  1
  Pr  Pr6  1  0.25000000  0.75000000  0.50000000  1
  Pr  Pr7  1  0.39784012  0.39784012  0.39784012  1
  Pr  Pr8  1  0.00000000  0.00000000  0.60215988  1
  Pr  Pr9  1  0.60215988  0.00000000  0.00000000  1
  Pr  Pr10  1  0.00000000  0.60215988  0.00000000  1
  Ru  Ru11  1  0.62747225  0.62747225  0.83016399  1
  Ru  Ru12  1  0.62747225  0.83016399  0.62747225  1
  Ru  Ru13  1  0.83016399  0.62747225  0.62747225  1
  Ru  Ru14  1  0.79730826  0.79730826  0.16983601  1
  Ru  Ru15  1  0.20269174  0.00000000  0.37252775  1
  Ru  Ru16  1  0.00000000  0.20269174  0.37252775  1
  Ru  Ru17  1  0.37252775  0.20269174  0.00000000  1
  Ru  Ru18  1  0.37252775  0.00000000  0.20269174  1
  Ru  Ru19  1  0.16983601  0.79730826  0.79730826  1
  Ru  Ru20  1  0.20269174  0.37252775  0.00000000  1
  Ru  Ru21  1  0.79730826  0.16983601  0.79730826  1
  Ru  Ru22  1  0.00000000  0.37252775  0.20269174  1
  C  C23  1  0.69436076  0.69436076  0.49001011  1
  C  C24  1  0.69436076  0.49001011  0.69436076  1
  C  C25  1  0.49001011  0.69436076  0.69436076  1
  C  C26  1  0.20435065  0.20435065  0.50998989  1
  C  C27  1  0.79564935  0.00000000  0.30563924  1
  C  C28  1  0.00000000  0.79564935  0.30563924  1
  C  C29  1  0.30563924  0.79564935  0.00000000  1
  C  C30  1  0.30563924  0.00000000  0.79564935  1
  C  C31  1  0.50998989  0.20435065  0.20435065  1
  C  C32  1  0.79564935  0.30563924  0.00000000  1
  C  C33  1  0.20435065  0.50998989  0.20435065  1
  C  C34  1  0.00000000  0.30563924  0.79564935  1
  C  C35  1  0.56562169  0.56562169  0.00000000  1
  C  C36  1  0.56562169  0.00000000  0.56562169  1
  C  C37  1  0.00000000  0.56562169  0.56562169  1
  C  C38  1  0.43437831  0.00000000  0.43437831  1
  C  C39  1  0.00000000  0.43437831  0.43437831  1
  C  C40  1  0.43437831  0.43437831  0.00000000  1
