# generated using pymatgen
data_Pr12(RuC3)5
_symmetry_space_group_name_H-M   'P 1'
_cell_length_a   5.38798954
_cell_length_b   11.04896993
_cell_length_c   11.04896993
_cell_angle_alpha   120.00000000
_cell_angle_beta   90.00000000
_cell_angle_gamma   90.00000000
_symmetry_Int_Tables_number   1
_chemical_formula_structural   Pr12(RuC3)5
_chemical_formula_sum   'Pr12 Ru5 C15'
_cell_volume   569.64063105
_cell_formula_units_Z   1
loop_
 _symmetry_equiv_pos_site_id
 _symmetry_equiv_pos_as_xyz
  1  'x, y, z'
loop_
 _atom_site_type_symbol
 _atom_site_label
 _atom_site_symmetry_multiplicity
 _atom_site_fract_x
 _atom_site_fract_y
 _atom_site_fract_z
 _atom_site_occupancy
  Pr  Pr0  1  0.00000000  0.18532942  0.45742674  1
  Pr  Pr1  1  0.00000000  0.54257326  0.72790269  1
  Pr  Pr2  1  0.00000000  0.27209731  0.81467058  1
  Pr  Pr3  1  0.00000000  0.72790269  0.54257326  1
  Pr  Pr4  1  0.00000000  0.81467058  0.27209731  1
  Pr  Pr5  1  0.00000000  0.45742674  0.18532942  1
  Pr  Pr6  1  0.50000000  0.57045267  0.00000000  1
  Pr  Pr7  1  0.50000000  0.00000000  0.57045267  1
  Pr  Pr8  1  0.50000000  0.42954733  0.42954733  1
  Pr  Pr9  1  0.50000000  0.20742206  0.00000000  1
  Pr  Pr10  1  0.50000000  0.00000000  0.20742206  1
  Pr  Pr11  1  0.50000000  0.79257794  0.79257794  1
  Ru  Ru12  1  0.00000000  0.83999775  0.00000000  1
  Ru  Ru13  1  0.00000000  0.00000000  0.83999775  1
  Ru  Ru14  1  0.00000000  0.16000225  0.16000225  1
  Ru  Ru15  1  0.50000000  0.33333333  0.66666667  1
  Ru  Ru16  1  0.50000000  0.66666667  0.33333333  1
  C  C17  1  0.00000000  0.66948163  0.00000000  1
  C  C18  1  0.00000000  0.00000000  0.66948163  1
  C  C19  1  0.00000000  0.33051837  0.33051837  1
  C  C20  1  0.00000000  0.54846501  0.00000000  1
  C  C21  1  0.00000000  0.00000000  0.54846501  1
  C  C22  1  0.00000000  0.45153499  0.45153499  1
  C  C23  1  0.50000000  0.19156023  0.47336469  1
  C  C24  1  0.50000000  0.52663531  0.71819555  1
  C  C25  1  0.50000000  0.28180445  0.80843977  1
  C  C26  1  0.50000000  0.71819555  0.52663531  1
  C  C27  1  0.50000000  0.80843977  0.28180445  1
  C  C28  1  0.50000000  0.47336469  0.19156023  1
  C  C29  1  0.00000000  0.19823498  0.00000000  1
  C  C30  1  0.00000000  0.00000000  0.19823498  1
  C  C31  1  0.00000000  0.80176502  0.80176502  1
