# generated using pymatgen
data_Pr12(RuC3)5
_symmetry_space_group_name_H-M   P-62m
_cell_length_a   11.04896993
_cell_length_b   11.04896993
_cell_length_c   5.38798954
_cell_angle_alpha   90.00000000
_cell_angle_beta   90.00000000
_cell_angle_gamma   120.00000000
_symmetry_Int_Tables_number   189
_chemical_formula_structural   Pr12(RuC3)5
_chemical_formula_sum   'Pr12 Ru5 C15'
_cell_volume   569.64063105
_cell_formula_units_Z   1
loop_
 _symmetry_equiv_pos_site_id
 _symmetry_equiv_pos_as_xyz
  1  'x, y, z'
  2  '-x+y, -x, -z'
  3  '-y, x-y, z'
  4  'x, y, -z'
  5  '-x+y, -x, z'
  6  '-y, x-y, -z'
  7  'y, x, z'
  8  '-x, -x+y, -z'
  9  'x-y, -y, z'
  10  'y, x, -z'
  11  '-x, -x+y, z'
  12  'x-y, -y, -z'
loop_
 _atom_site_type_symbol
 _atom_site_label
 _atom_site_symmetry_multiplicity
 _atom_site_fract_x
 _atom_site_fract_y
 _atom_site_fract_z
 _atom_site_occupancy
  Pr  Pr0  6  0.18532942  0.45742674  0.00000000  1
  Pr  Pr1  3  0.00000000  0.20742206  0.50000000  1
  Pr  Pr2  3  0.00000000  0.57045267  0.50000000  1
  Ru  Ru3  3  0.00000000  0.83999775  0.00000000  1
  Ru  Ru4  2  0.33333333  0.66666667  0.50000000  1
  C  C5  6  0.19156023  0.47336469  0.50000000  1
  C  C6  3  0.00000000  0.19823498  0.00000000  1
  C  C7  3  0.00000000  0.54846501  0.00000000  1
  C  C8  3  0.00000000  0.66948163  0.00000000  1
