# generated using pymatgen
data_Sr2V2O7
_symmetry_space_group_name_H-M   'P 1'
_cell_length_a   5.72251339
_cell_length_b   9.37424120
_cell_length_c   13.91015464
_cell_angle_alpha   90.00000000
_cell_angle_beta   89.94640215
_cell_angle_gamma   90.00000000
_symmetry_Int_Tables_number   1
_chemical_formula_structural   Sr2V2O7
_chemical_formula_sum   'Sr8 V8 O28'
_cell_volume   746.19908116
_cell_formula_units_Z   4
loop_
 _symmetry_equiv_pos_site_id
 _symmetry_equiv_pos_as_xyz
  1  'x, y, z'
loop_
 _atom_site_type_symbol
 _atom_site_label
 _atom_site_symmetry_multiplicity
 _atom_site_fract_x
 _atom_site_fract_y
 _atom_site_fract_z
 _atom_site_occupancy
  Sr  Sr0  1  0.25370407  0.19218097  0.77057904  1
  Sr  Sr1  1  0.24629593  0.69218097  0.72942096  1
  Sr  Sr2  1  0.74629593  0.80781903  0.22942096  1
  Sr  Sr3  1  0.75370407  0.30781903  0.27057904  1
  Sr  Sr4  1  0.75829469  0.39984126  0.59171721  1
  Sr  Sr5  1  0.74170531  0.89984126  0.90828279  1
  Sr  Sr6  1  0.24170531  0.60015874  0.40828279  1
  Sr  Sr7  1  0.25829469  0.10015874  0.09171721  1
  V  V8  1  0.27590703  0.75806989  0.02264565  1
  V  V9  1  0.22409297  0.25806989  0.47735435  1
  V  V10  1  0.72409297  0.24193011  0.97735435  1
  V  V11  1  0.77590703  0.74193011  0.52264565  1
  V  V12  1  0.22585909  0.49646486  0.18091189  1
  V  V13  1  0.27414091  0.99646486  0.31908811  1
  V  V14  1  0.77414091  0.50353514  0.81908811  1
  V  V15  1  0.72585909  0.00353514  0.68091189  1
  O  O16  1  0.26871716  0.57493424  0.06313896  1
  O  O17  1  0.23128284  0.07493424  0.43686104  1
  O  O18  1  0.73128284  0.42506576  0.93686104  1
  O  O19  1  0.76871716  0.92506576  0.56313896  1
  O  O20  1  0.49715126  0.85745432  0.07649634  1
  O  O21  1  0.00284874  0.35745432  0.42350366  1
  O  O22  1  0.50284874  0.14254568  0.92350366  1
  O  O23  1  0.99715126  0.64254568  0.57649634  1
  O  O24  1  0.02132811  0.84898980  0.04866003  1
  O  O25  1  0.47867189  0.34898980  0.45133997  1
  O  O26  1  0.97867189  0.15101020  0.95133997  1
  O  O27  1  0.52132811  0.65101020  0.54866003  1
  O  O28  1  0.33599312  0.76481913  0.90274177  1
  O  O29  1  0.16400688  0.26481913  0.59725823  1
  O  O30  1  0.66400688  0.23518087  0.09725823  1
  O  O31  1  0.83599312  0.73518087  0.40274177  1
  O  O32  1  0.00233411  0.58005467  0.24074844  1
  O  O33  1  0.49766589  0.08005467  0.25925156  1
  O  O34  1  0.99766589  0.41994533  0.75925156  1
  O  O35  1  0.50233411  0.91994533  0.74074844  1
  O  O36  1  0.47101883  0.51493590  0.25249971  1
  O  O37  1  0.02898117  0.01493590  0.24750029  1
  O  O38  1  0.52898117  0.48506410  0.74750029  1
  O  O39  1  0.97101883  0.98506410  0.75249971  1
  O  O40  1  0.14425336  0.32072243  0.17602877  1
  O  O41  1  0.35574664  0.82072243  0.32397123  1
  O  O42  1  0.85574664  0.67927757  0.82397123  1
  O  O43  1  0.64425336  0.17927757  0.67602877  1
