# generated using pymatgen
data_Sr2V2O7
_symmetry_space_group_name_H-M   P2_1/c
_cell_length_a   5.72251339
_cell_length_b   9.37424120
_cell_length_c   15.04621177
_cell_angle_alpha   90.00000000
_cell_angle_beta   112.40766189
_cell_angle_gamma   90.00000000
_symmetry_Int_Tables_number   14
_chemical_formula_structural   Sr2V2O7
_chemical_formula_sum   'Sr8 V8 O28'
_cell_volume   746.19908116
_cell_formula_units_Z   4
loop_
 _symmetry_equiv_pos_site_id
 _symmetry_equiv_pos_as_xyz
  1  'x, y, z'
  2  '-x, -y, -z'
  3  '-x, y+1/2, -z+1/2'
  4  'x, -y+1/2, z+1/2'
loop_
 _atom_site_type_symbol
 _atom_site_label
 _atom_site_symmetry_multiplicity
 _atom_site_fract_x
 _atom_site_fract_y
 _atom_site_fract_z
 _atom_site_occupancy
  Sr  Sr0  4  0.16657748  0.60015874  0.40828279  1
  Sr  Sr1  4  0.48312503  0.69218097  0.72942096  1
  V  V2  4  0.04494721  0.50353514  0.81908811  1
  V  V3  4  0.25326138  0.24193011  0.97735435  1
  O  O4  4  0.02733192  0.65101020  0.54866003  1
  O  O5  4  0.03177541  0.17927757  0.67602877  1
  O  O6  4  0.20557821  0.07493424  0.43686104  1
  O  O7  4  0.21851912  0.01493590  0.24750029  1
  O  O8  4  0.23841433  0.58005467  0.24074844  1
  O  O9  4  0.42065491  0.14254568  0.92350366  1
  O  O10  4  0.43325135  0.23518087  0.09725823  1
