# generated using pymatgen
data_Sr4V2O9
_symmetry_space_group_name_H-M   'P 1'
_cell_length_a   7.60871107
_cell_length_b   10.29352035
_cell_length_c   13.03131759
_cell_angle_alpha   90.00000000
_cell_angle_beta   90.00000000
_cell_angle_gamma   90.89006357
_symmetry_Int_Tables_number   1
_chemical_formula_structural   Sr4V2O9
_chemical_formula_sum   'Sr16 V8 O36'
_cell_volume   1020.49514941
_cell_formula_units_Z   4
loop_
 _symmetry_equiv_pos_site_id
 _symmetry_equiv_pos_as_xyz
  1  'x, y, z'
loop_
 _atom_site_type_symbol
 _atom_site_label
 _atom_site_symmetry_multiplicity
 _atom_site_fract_x
 _atom_site_fract_y
 _atom_site_fract_z
 _atom_site_occupancy
  Sr  Sr0  1  0.46719126  0.10611699  0.34388067  1
  Sr  Sr1  1  0.53280874  0.89388301  0.84388067  1
  Sr  Sr2  1  0.96798094  0.10307446  0.29759770  1
  Sr  Sr3  1  0.03201906  0.89692554  0.79759770  1
  Sr  Sr4  1  0.73592124  0.46965706  0.30246817  1
  Sr  Sr5  1  0.26407876  0.53034294  0.80246817  1
  Sr  Sr6  1  0.22943114  0.75028310  0.29840550  1
  Sr  Sr7  1  0.77056886  0.24971690  0.79840550  1
  Sr  Sr8  1  0.75917219  0.74354778  0.10550685  1
  Sr  Sr9  1  0.24082781  0.25645222  0.60550685  1
  Sr  Sr10  1  0.25082004  0.99218598  0.07978308  1
  Sr  Sr11  1  0.74917996  0.00781402  0.57978308  1
  Sr  Sr12  1  0.51323661  0.36728327  0.06939658  1
  Sr  Sr13  1  0.48676339  0.63271673  0.56939658  1
  Sr  Sr14  1  0.98617962  0.40932839  0.05359279  1
  Sr  Sr15  1  0.01382038  0.59067161  0.55359279  1
  V  V16  1  0.73311700  0.78426216  0.39129651  1
  V  V17  1  0.26688300  0.21573784  0.89129651  1
  V  V18  1  0.20979187  0.37609811  0.32438031  1
  V  V19  1  0.79020813  0.62390189  0.82438031  1
  V  V20  1  0.26447982  0.68138166  0.03962753  1
  V  V21  1  0.73552018  0.31861834  0.53962753  1
  V  V22  1  0.73588566  0.08884146  0.07633272  1
  V  V23  1  0.26411434  0.91115854  0.57633272  1
  O  O24  1  0.77009401  0.77060842  0.52435547  1
  O  O25  1  0.22990599  0.22939158  0.02435547  1
  O  O26  1  0.89054158  0.70745258  0.31731960  1
  O  O27  1  0.10945842  0.29254742  0.81731960  1
  O  O28  1  0.53856215  0.70049970  0.36564806  1
  O  O29  1  0.46143785  0.29950030  0.86564806  1
  O  O30  1  0.73109105  0.95118076  0.36726379  1
  O  O31  1  0.26890895  0.04881924  0.86726379  1
  O  O32  1  0.21192270  0.24507594  0.41083376  1
  O  O33  1  0.78807730  0.75492406  0.91083376  1
  O  O34  1  0.41440829  0.37596905  0.26265733  1
  O  O35  1  0.58559171  0.62403095  0.76265733  1
  O  O36  1  0.03181891  0.34014327  0.24133179  1
  O  O37  1  0.96818109  0.65985673  0.74133179  1
  O  O38  1  0.16601666  0.52069480  0.38466205  1
  O  O39  1  0.83398334  0.47930520  0.88466205  1
  O  O40  1  0.28435269  0.51798574  0.00226100  1
  O  O41  1  0.71564731  0.48201426  0.50226100  1
  O  O42  1  0.42630206  0.74234260  0.12018200  1
  O  O43  1  0.57369794  0.25765740  0.62018200  1
  O  O44  1  0.07703619  0.69524372  0.11267110  1
  O  O45  1  0.92296381  0.30475628  0.61267110  1
  O  O46  1  0.25227462  0.77620706  0.92837065  1
  O  O47  1  0.74772538  0.22379294  0.42837065  1
  O  O48  1  0.91987520  0.99820220  0.10962020  1
  O  O49  1  0.08012480  0.00179780  0.60962020  1
  O  O50  1  0.65900133  0.16122920  0.18824030  1
  O  O51  1  0.34099867  0.83877080  0.68824030  1
  O  O52  1  0.78250986  0.22038227  0.99535079  1
  O  O53  1  0.21749014  0.77961773  0.49535079  1
  O  O54  1  0.57476966  0.98548571  0.02592461  1
  O  O55  1  0.42523034  0.01451429  0.52592461  1
  O  O56  1  0.23562180  0.98497289  0.26211197  1
  O  O57  1  0.76437820  0.01502711  0.76211197  1
  O  O58  1  0.73523281  0.51255764  0.12672734  1
  O  O59  1  0.26476719  0.48744236  0.62672734  1
