# generated using pymatgen
data_Sr4V2O9
_symmetry_space_group_name_H-M   P2_1
_cell_length_a   7.60871107
_cell_length_b   13.03131759
_cell_length_c   10.29352035
_cell_angle_alpha   90.00000000
_cell_angle_beta   90.89006357
_cell_angle_gamma   90.00000000
_symmetry_Int_Tables_number   4
_chemical_formula_structural   Sr4V2O9
_chemical_formula_sum   'Sr16 V8 O36'
_cell_volume   1020.49514941
_cell_formula_units_Z   4
loop_
 _symmetry_equiv_pos_site_id
 _symmetry_equiv_pos_as_xyz
  1  'x, y, z'
  2  '-x, y+1/2, -z'
loop_
 _atom_site_type_symbol
 _atom_site_label
 _atom_site_symmetry_multiplicity
 _atom_site_fract_x
 _atom_site_fract_y
 _atom_site_fract_z
 _atom_site_occupancy
  Sr  Sr0  2  0.01382038  0.44640721  0.59067161  1
  Sr  Sr1  2  0.03201906  0.20240230  0.89692554  1
  Sr  Sr2  2  0.22943114  0.70159450  0.75028310  1
  Sr  Sr3  2  0.24082781  0.39449315  0.25645222  1
  Sr  Sr4  2  0.25082004  0.92021692  0.99218598  1
  Sr  Sr5  2  0.26407876  0.19753183  0.53034294  1
  Sr  Sr6  2  0.46719126  0.65611933  0.10611699  1
  Sr  Sr7  2  0.48676339  0.43060342  0.63271673  1
  V  V8  2  0.20979187  0.67561969  0.37609811  1
  V  V9  2  0.26411434  0.42366728  0.91115854  1
  V  V10  2  0.26447982  0.96037247  0.68138166  1
  V  V11  2  0.26688300  0.10870349  0.21573784  1
  O  O12  2  0.03181891  0.75866821  0.34014327  1
  O  O13  2  0.07703619  0.88732890  0.69524372  1
  O  O14  2  0.08012480  0.39037980  0.00179780  1
  O  O15  2  0.10945842  0.18268040  0.29254742  1
  O  O16  2  0.16601666  0.61533795  0.52069480  1
  O  O17  2  0.21192270  0.58916624  0.24507594  1
  O  O18  2  0.21749014  0.50464921  0.77961773  1
  O  O19  2  0.22990599  0.97564453  0.22939158  1
  O  O20  2  0.23562180  0.73788803  0.98497289  1
  O  O21  2  0.25227462  0.07162935  0.77620706  1
  O  O22  2  0.26476719  0.37327266  0.48744236  1
  O  O23  2  0.26890895  0.13273621  0.04881924  1
  O  O24  2  0.28435269  0.99773900  0.51798574  1
  O  O25  2  0.34099867  0.31175970  0.83877080  1
  O  O26  2  0.41440829  0.73734267  0.37596905  1
  O  O27  2  0.42523034  0.47407539  0.01451429  1
  O  O28  2  0.42630206  0.87981800  0.74234260  1
  O  O29  2  0.46143785  0.13435194  0.29950030  1
