# generated using pymatgen
data_SrCuAs
_symmetry_space_group_name_H-M   'P 1'
_cell_length_a   4.28497785
_cell_length_b   4.28497785
_cell_length_c   8.62032279
_cell_angle_alpha   89.96360425
_cell_angle_beta   89.96360425
_cell_angle_gamma   60.01511213
_symmetry_Int_Tables_number   1
_chemical_formula_structural   SrCuAs
_chemical_formula_sum   'Sr2 Cu2 As2'
_cell_volume   137.09364415
_cell_formula_units_Z   2
loop_
 _symmetry_equiv_pos_site_id
 _symmetry_equiv_pos_as_xyz
  1  'x, y, z'
loop_
 _atom_site_type_symbol
 _atom_site_label
 _atom_site_symmetry_multiplicity
 _atom_site_fract_x
 _atom_site_fract_y
 _atom_site_fract_z
 _atom_site_occupancy
  Sr  Sr0  1  0.50000000  0.00000000  0.00000000  1
  Sr  Sr1  1  0.50000000  0.00000000  0.50000000  1
  Cu  Cu2  1  0.83275472  0.33275472  0.74990424  1
  Cu  Cu3  1  0.16724528  0.66724528  0.25009576  1
  As  As4  1  0.16614176  0.66614176  0.75035148  1
  As  As5  1  0.83385824  0.33385824  0.24964852  1
