# generated using pymatgen
data_SrV4O11
_symmetry_space_group_name_H-M   'P 1'
_cell_length_a   6.20007260
_cell_length_b   8.76588952
_cell_length_c   26.98103845
_cell_angle_alpha   90.00000000
_cell_angle_beta   90.00000000
_cell_angle_gamma   69.87763273
_symmetry_Int_Tables_number   1
_chemical_formula_structural   SrV4O11
_chemical_formula_sum   'Sr4 V16 O44'
_cell_volume   1376.88773149
_cell_formula_units_Z   4
loop_
 _symmetry_equiv_pos_site_id
 _symmetry_equiv_pos_as_xyz
  1  'x, y, z'
loop_
 _atom_site_type_symbol
 _atom_site_label
 _atom_site_symmetry_multiplicity
 _atom_site_fract_x
 _atom_site_fract_y
 _atom_site_fract_z
 _atom_site_occupancy
  Sr  Sr0  1  0.63535430  0.86399797  0.11471665  1
  Sr  Sr1  1  0.86464570  0.63600203  0.61471665  1
  Sr  Sr2  1  0.36464570  0.13600203  0.88528335  1
  Sr  Sr3  1  0.13535430  0.36399797  0.38528335  1
  V  V4  1  0.20007592  0.68876286  0.03181134  1
  V  V5  1  0.29992408  0.81123714  0.53181134  1
  V  V6  1  0.79992408  0.31123714  0.96818866  1
  V  V7  1  0.70007592  0.18876286  0.46818866  1
  V  V8  1  0.50183257  0.68069020  0.92750147  1
  V  V9  1  0.99816743  0.81930980  0.42750147  1
  V  V10  1  0.49816743  0.31930980  0.07249853  1
  V  V11  1  0.00183257  0.18069020  0.57249853  1
  V  V12  1  0.28130327  0.56626289  0.82016693  1
  V  V13  1  0.21869673  0.93373711  0.32016693  1
  V  V14  1  0.71869673  0.43373711  0.17983307  1
  V  V15  1  0.78130327  0.06626289  0.67983307  1
  V  V16  1  0.43660417  0.45766175  0.69969744  1
  V  V17  1  0.06339583  0.04233825  0.19969744  1
  V  V18  1  0.56339583  0.54233825  0.30030256  1
  V  V19  1  0.93660417  0.95766175  0.80030256  1
  O  O20  1  0.92971640  0.79528082  0.04699145  1
  O  O21  1  0.57028360  0.70471918  0.54699145  1
  O  O22  1  0.07028360  0.20471918  0.95300855  1
  O  O23  1  0.42971640  0.29528082  0.45300855  1
  O  O24  1  0.38165105  0.75106129  0.06462234  1
  O  O25  1  0.11834895  0.74893871  0.56462234  1
  O  O26  1  0.61834895  0.24893871  0.93537766  1
  O  O27  1  0.88165105  0.25106129  0.43537766  1
  O  O28  1  0.74304638  0.52792411  0.95346982  1
  O  O29  1  0.75695362  0.97207589  0.45346982  1
  O  O30  1  0.25695362  0.47207589  0.04653018  1
  O  O31  1  0.24304638  0.02792411  0.54653018  1
  O  O32  1  0.25911976  0.70543712  0.96539721  1
  O  O33  1  0.24088024  0.79456288  0.46539721  1
  O  O34  1  0.74088024  0.29456288  0.03460279  1
  O  O35  1  0.75911976  0.20543712  0.53460279  1
  O  O36  1  0.54997521  0.85376472  0.92339282  1
  O  O37  1  0.95002479  0.64623528  0.42339282  1
  O  O38  1  0.45002479  0.14623528  0.07660718  1
  O  O39  1  0.04997521  0.35376472  0.57660718  1
  O  O40  1  0.44721926  0.62331140  0.86621011  1
  O  O41  1  0.05278074  0.87668860  0.36621011  1
  O  O42  1  0.55278074  0.37668860  0.13378989  1
  O  O43  1  0.94721926  0.12331140  0.63378989  1
  O  O44  1  0.21181528  0.41301273  0.84146772  1
  O  O45  1  0.28818472  0.08698727  0.34146772  1
  O  O46  1  0.78818472  0.58698727  0.15853228  1
  O  O47  1  0.71181528  0.91301273  0.65853228  1
  O  O48  1  0.44813746  0.50733239  0.76572884  1
  O  O49  1  0.05186254  0.99266761  0.26572884  1
  O  O50  1  0.55186254  0.49266761  0.23427116  1
  O  O51  1  0.94813746  0.00733239  0.73427116  1
  O  O52  1  0.03122122  0.73449838  0.80752070  1
  O  O53  1  0.46877878  0.76550162  0.30752070  1
  O  O54  1  0.96877878  0.26550162  0.19247930  1
  O  O55  1  0.53122122  0.23449838  0.69247930  1
  O  O56  1  0.16825825  0.53976962  0.67928656  1
  O  O57  1  0.33174175  0.96023038  0.17928656  1
  O  O58  1  0.83174175  0.46023038  0.32071344  1
  O  O59  1  0.66825825  0.03976962  0.82071344  1
  O  O60  1  0.61105490  0.52842571  0.66749894  1
  O  O61  1  0.88894510  0.97157429  0.16749894  1
  O  O62  1  0.38894510  0.47157429  0.33250106  1
  O  O63  1  0.11105490  0.02842571  0.83250106  1
