# generated using pymatgen
data_SrV4O11
_symmetry_space_group_name_H-M   P2_1/c
_cell_length_a   6.20007260
_cell_length_b   26.98103845
_cell_length_c   8.82534119
_cell_angle_alpha   90.00000000
_cell_angle_beta   111.15067966
_cell_angle_gamma   90.00000000
_symmetry_Int_Tables_number   14
_chemical_formula_structural   SrV4O11
_chemical_formula_sum   'Sr4 V16 O44'
_cell_volume   1376.88773149
_cell_formula_units_Z   4
loop_
 _symmetry_equiv_pos_site_id
 _symmetry_equiv_pos_as_xyz
  1  'x, y, z'
  2  '-x, -y, -z'
  3  '-x, y+1/2, -z+1/2'
  4  'x, -y+1/2, z+1/2'
loop_
 _atom_site_type_symbol
 _atom_site_label
 _atom_site_symmetry_multiplicity
 _atom_site_fract_x
 _atom_site_fract_y
 _atom_site_fract_z
 _atom_site_occupancy
  Sr  Sr0  4  0.49935227  0.11471665  0.86399797  1
  V  V1  4  0.10573408  0.19969744  0.04233825  1
  V  V2  4  0.11116122  0.53181134  0.81123714  1
  V  V3  4  0.15243384  0.17983307  0.43373711  1
  V  V4  4  0.18252277  0.57249853  0.18069020  1
  O  O5  4  0.03544312  0.03460279  0.29456288  1
  O  O6  4  0.04453015  0.23427116  0.49266761  1
  O  O7  4  0.07053066  0.63378989  0.12331140  1
  O  O8  4  0.13271234  0.06462234  0.75106129  1
  O  O9  4  0.13948061  0.66749894  0.52842571  1
  O  O10  4  0.23428041  0.19247930  0.26550162  1
  O  O11  4  0.27097049  0.54653018  0.02792411  1
  O  O12  4  0.27500278  0.54699145  0.70471918  1
  O  O13  4  0.29197213  0.17928656  0.96023038  1
  O  O14  4  0.37517198  0.15853228  0.58698727  1
  O  O15  4  0.40373993  0.57660718  0.35376472  1
