# generated using pymatgen
data_Ti18ZnN13
_symmetry_space_group_name_H-M   'P 1'
_cell_length_a   7.33182907
_cell_length_b   7.91099251
_cell_length_c   7.91099251
_cell_angle_alpha   110.90646263
_cell_angle_beta   107.99475999
_cell_angle_gamma   107.99475999
_symmetry_Int_Tables_number   1
_chemical_formula_structural   Ti18ZnN13
_chemical_formula_sum   'Ti18 Zn1 N13'
_cell_volume   359.45403904
_cell_formula_units_Z   1
loop_
 _symmetry_equiv_pos_site_id
 _symmetry_equiv_pos_as_xyz
  1  'x, y, z'
loop_
 _atom_site_type_symbol
 _atom_site_label
 _atom_site_symmetry_multiplicity
 _atom_site_fract_x
 _atom_site_fract_y
 _atom_site_fract_z
 _atom_site_occupancy
  Ti  Ti0  1  0.21821431  0.89408659  0.73516170  1
  Ti  Ti1  1  0.48305262  0.26483830  0.15892489  1
  Ti  Ti2  1  0.32412772  0.84107511  0.10591341  1
  Ti  Ti3  1  0.78178569  0.10591341  0.26483830  1
  Ti  Ti4  1  0.51694738  0.73516170  0.84107511  1
  Ti  Ti5  1  0.67587228  0.15892489  0.89408659  1
  Ti  Ti6  1  0.27028113  0.37641194  0.42807648  1
  Ti  Ti7  1  0.84220465  0.57192352  0.94833546  1
  Ti  Ti8  1  0.89386919  0.05166454  0.62358806  1
  Ti  Ti9  1  0.72971887  0.62358806  0.57192352  1
  Ti  Ti10  1  0.15779535  0.42807648  0.05166454  1
  Ti  Ti11  1  0.10613081  0.94833546  0.37641194  1
  Ti  Ti12  1  0.05275100  0.45958744  0.67561917  1
  Ti  Ti13  1  0.37713183  0.32438083  0.78396827  1
  Ti  Ti14  1  0.59316356  0.21603173  0.54041256  1
  Ti  Ti15  1  0.94724900  0.54041256  0.32438083  1
  Ti  Ti16  1  0.62286817  0.67561917  0.21603173  1
  Ti  Ti17  1  0.40683644  0.78396827  0.45958744  1
  Zn  Zn18  1  0.00000000  0.00000000  0.00000000  1
  N  N19  1  0.50000000  0.00000000  0.00000000  1
  N  N20  1  0.07657617  0.20600166  0.51805942  1
  N  N21  1  0.55851675  0.48194058  0.68794225  1
  N  N22  1  0.87057450  0.31205775  0.79399834  1
  N  N23  1  0.92342383  0.79399834  0.48194058  1
  N  N24  1  0.44148325  0.51805942  0.31205775  1
  N  N25  1  0.12942550  0.68794225  0.20600166  1
  N  N26  1  0.23772818  0.63187764  0.58019488  1
  N  N27  1  0.65753329  0.41980512  0.05168276  1
  N  N28  1  0.60585054  0.94831724  0.36812236  1
  N  N29  1  0.76227182  0.36812236  0.41980512  1
  N  N30  1  0.34246671  0.58019488  0.94831724  1
  N  N31  1  0.39414946  0.05168276  0.63187764  1
