# generated using pymatgen
data_Ti18ZnN13
_symmetry_space_group_name_H-M   R-3
_cell_length_a   13.03199275
_cell_length_b   13.03199275
_cell_length_c   7.33182907
_cell_angle_alpha   90.00000000
_cell_angle_beta   90.00000000
_cell_angle_gamma   120.00000000
_symmetry_Int_Tables_number   148
_chemical_formula_structural   Ti18ZnN13
_chemical_formula_sum   'Ti54 Zn3 N39'
_cell_volume   1078.36211711
_cell_formula_units_Z   3
loop_
 _symmetry_equiv_pos_site_id
 _symmetry_equiv_pos_as_xyz
  1  'x, y, z'
  2  '-x, -y, -z'
  3  '-y, x-y, z'
  4  'y, -x+y, -z'
  5  '-x+y, -x, z'
  6  'x-y, x, -z'
  7  'x+2/3, y+1/3, z+1/3'
  8  '-x+2/3, -y+1/3, -z+1/3'
  9  '-y+2/3, x-y+1/3, z+1/3'
  10  'y+2/3, -x+y+1/3, -z+1/3'
  11  '-x+y+2/3, -x+1/3, z+1/3'
  12  'x-y+2/3, x+1/3, -z+1/3'
  13  'x+1/3, y+2/3, z+2/3'
  14  '-x+1/3, -y+2/3, -z+2/3'
  15  '-y+1/3, x-y+2/3, z+2/3'
  16  'y+1/3, -x+y+2/3, -z+2/3'
  17  '-x+y+1/3, -x+2/3, z+2/3'
  18  'x-y+1/3, x+2/3, -z+2/3'
loop_
 _atom_site_type_symbol
 _atom_site_label
 _atom_site_symmetry_multiplicity
 _atom_site_fract_x
 _atom_site_fract_y
 _atom_site_fract_z
 _atom_site_occupancy
  Ti  Ti0  18  0.01767049  0.87641610  0.65820178  1
  Ti  Ti1  18  0.03611637  0.74785190  0.34101546  1
  Ti  Ti2  18  0.06517053  0.50675300  0.66454834  1
  Zn  Zn3  3  0.00000000  0.00000000  0.00000000  1
  N  N4  18  0.03535203  0.75864631  0.83522247  1
  N  N5  18  0.07069084  0.50950404  0.16703734  1
  N  N6  3  0.00000000  0.00000000  0.50000000  1
