# generated using pymatgen
data_Zr3Zn7N
_symmetry_space_group_name_H-M   'P 1'
_cell_length_a   5.39146674
_cell_length_b   8.52864334
_cell_length_c   8.52864334
_cell_angle_alpha   120.00000000
_cell_angle_beta   90.00000000
_cell_angle_gamma   90.00000000
_symmetry_Int_Tables_number   1
_chemical_formula_structural   Zr3Zn7N
_chemical_formula_sum   'Zr6 Zn14 N2'
_cell_volume   339.62329287
_cell_formula_units_Z   2
loop_
 _symmetry_equiv_pos_site_id
 _symmetry_equiv_pos_as_xyz
  1  'x, y, z'
loop_
 _atom_site_type_symbol
 _atom_site_label
 _atom_site_symmetry_multiplicity
 _atom_site_fract_x
 _atom_site_fract_y
 _atom_site_fract_z
 _atom_site_occupancy
  Zr  Zr0  1  0.34366540  0.87540016  0.12459984  1
  Zr  Zr1  1  0.34366540  0.24919967  0.12459984  1
  Zr  Zr2  1  0.34366540  0.87540016  0.75080033  1
  Zr  Zr3  1  0.84366540  0.12459984  0.87540016  1
  Zr  Zr4  1  0.84366540  0.75080033  0.87540016  1
  Zr  Zr5  1  0.84366540  0.12459984  0.24919967  1
  Zn  Zn6  1  0.83783941  0.33333333  0.66666667  1
  Zn  Zn7  1  0.33783941  0.66666667  0.33333333  1
  Zn  Zn8  1  0.84887101  0.77591554  0.22408446  1
  Zn  Zn9  1  0.84887101  0.44816891  0.22408446  1
  Zn  Zn10  1  0.84887101  0.77591554  0.55183109  1
  Zn  Zn11  1  0.34887101  0.22408446  0.77591554  1
  Zn  Zn12  1  0.34887101  0.55183109  0.77591554  1
  Zn  Zn13  1  0.34887101  0.22408446  0.44816891  1
  Zn  Zn14  1  0.09167314  0.49779211  0.50220789  1
  Zn  Zn15  1  0.09167314  0.00441577  0.50220789  1
  Zn  Zn16  1  0.09167314  0.49779211  0.99558423  1
  Zn  Zn17  1  0.59167314  0.50220789  0.49779211  1
  Zn  Zn18  1  0.59167314  0.99558423  0.49779211  1
  Zn  Zn19  1  0.59167314  0.50220789  0.00441577  1
  N  N20  1  0.09303201  0.00000000  0.00000000  1
  N  N21  1  0.59303201  0.00000000  0.00000000  1
