# generated using pymatgen
data_Zr6Zn23N
_symmetry_space_group_name_H-M   'P 1'
_cell_length_a   8.69898218
_cell_length_b   8.69898218
_cell_length_c   8.69898218
_cell_angle_alpha   60.00000000
_cell_angle_beta   60.00000000
_cell_angle_gamma   60.00000000
_symmetry_Int_Tables_number   1
_chemical_formula_structural   Zr6Zn23N
_chemical_formula_sum   'Zr6 Zn23 N1'
_cell_volume   465.46853225
_cell_formula_units_Z   1
loop_
 _symmetry_equiv_pos_site_id
 _symmetry_equiv_pos_as_xyz
  1  'x, y, z'
loop_
 _atom_site_type_symbol
 _atom_site_label
 _atom_site_symmetry_multiplicity
 _atom_site_fract_x
 _atom_site_fract_y
 _atom_site_fract_z
 _atom_site_occupancy
  Zr  Zr0  1  0.81187768  0.18812232  0.18812232  1
  Zr  Zr1  1  0.81187768  0.18812232  0.81187768  1
  Zr  Zr2  1  0.81187768  0.81187768  0.18812232  1
  Zr  Zr3  1  0.18812232  0.81187768  0.81187768  1
  Zr  Zr4  1  0.18812232  0.81187768  0.18812232  1
  Zr  Zr5  1  0.18812232  0.18812232  0.81187768  1
  Zn  Zn6  1  0.49303814  0.16898729  0.16898729  1
  Zn  Zn7  1  0.16898729  0.49303814  0.16898729  1
  Zn  Zn8  1  0.16898729  0.16898729  0.49303814  1
  Zn  Zn9  1  0.16898729  0.16898729  0.16898729  1
  Zn  Zn10  1  0.50696186  0.83101271  0.83101271  1
  Zn  Zn11  1  0.83101271  0.50696186  0.83101271  1
  Zn  Zn12  1  0.83101271  0.83101271  0.50696186  1
  Zn  Zn13  1  0.83101271  0.83101271  0.83101271  1
  Zn  Zn14  1  0.85952600  0.38015800  0.38015800  1
  Zn  Zn15  1  0.38015800  0.85952600  0.38015800  1
  Zn  Zn16  1  0.38015800  0.38015800  0.85952600  1
  Zn  Zn17  1  0.38015800  0.38015800  0.38015800  1
  Zn  Zn18  1  0.14047400  0.61984200  0.61984200  1
  Zn  Zn19  1  0.61984200  0.14047400  0.61984200  1
  Zn  Zn20  1  0.61984200  0.61984200  0.14047400  1
  Zn  Zn21  1  0.61984200  0.61984200  0.61984200  1
  Zn  Zn22  1  0.50000000  0.00000000  0.00000000  1
  Zn  Zn23  1  0.50000000  0.00000000  0.50000000  1
  Zn  Zn24  1  0.50000000  0.50000000  0.00000000  1
  Zn  Zn25  1  0.00000000  0.50000000  0.50000000  1
  Zn  Zn26  1  0.00000000  0.50000000  0.00000000  1
  Zn  Zn27  1  0.00000000  0.00000000  0.50000000  1
  Zn  Zn28  1  0.50000000  0.50000000  0.50000000  1
  N  N29  1  0.00000000  0.00000000  0.00000000  1
