# generated using pymatgen
data_Al2Co(AuS2)3
_symmetry_space_group_name_H-M   'P 1'
_cell_length_a   6.05161625
_cell_length_b   6.05161625
_cell_length_c   7.41422015
_cell_angle_alpha   97.72769173
_cell_angle_beta   97.72769173
_cell_angle_gamma   119.96527256
_symmetry_Int_Tables_number   1
_chemical_formula_structural   Al2Co(AuS2)3
_chemical_formula_sum   'Al2 Co1 Au3 S6'
_cell_volume   226.57228156
_cell_formula_units_Z   1
loop_
 _symmetry_equiv_pos_site_id
 _symmetry_equiv_pos_as_xyz
  1  'x, y, z'
loop_
 _atom_site_type_symbol
 _atom_site_label
 _atom_site_symmetry_multiplicity
 _atom_site_fract_x
 _atom_site_fract_y
 _atom_site_fract_z
 _atom_site_occupancy
  Al  Al0  1  0.66643695  0.33356305  0.00000000  1
  Al  Al1  1  0.33356305  0.66643695  0.00000000  1
  Co  Co2  1  0.00000000  0.00000000  0.00000000  1
  Au  Au3  1  0.50000000  0.50000000  0.50000000  1
  Au  Au4  1  0.84072719  0.15927281  0.50000000  1
  Au  Au5  1  0.15927281  0.84072719  0.50000000  1
  S  S6  1  0.62496585  0.62496585  0.82721643  1
  S  S7  1  0.73828520  0.05703127  0.17277185  1
  S  S8  1  0.26171480  0.94296873  0.82722815  1
  S  S9  1  0.94296873  0.26171480  0.82722815  1
  S  S10  1  0.37503415  0.37503415  0.17278357  1
  S  S11  1  0.05703127  0.73828520  0.17277185  1
