# generated using pymatgen
data_Al2Co(AuS2)3
_symmetry_space_group_name_H-M   C2/m
_cell_length_a   6.05479249
_cell_length_b   10.47987236
_cell_length_c   7.41422015
_cell_angle_alpha   90.00000000
_cell_angle_beta   105.59222818
_cell_angle_gamma   90.00000000
_symmetry_Int_Tables_number   12
_chemical_formula_structural   Al2Co(AuS2)3
_chemical_formula_sum   'Al4 Co2 Au6 S12'
_cell_volume   453.14456313
_cell_formula_units_Z   2
loop_
 _symmetry_equiv_pos_site_id
 _symmetry_equiv_pos_as_xyz
  1  'x, y, z'
  2  '-x, -y, -z'
  3  '-x, y, -z'
  4  'x, -y, z'
  5  'x+1/2, y+1/2, z'
  6  '-x+1/2, -y+1/2, -z'
  7  '-x+1/2, y+1/2, -z'
  8  'x+1/2, -y+1/2, z'
loop_
 _atom_site_type_symbol
 _atom_site_label
 _atom_site_symmetry_multiplicity
 _atom_site_fract_x
 _atom_site_fract_y
 _atom_site_fract_z
 _atom_site_occupancy
  Al  Al0  4  0.00000000  0.33356305  0.00000000  1
  Co  Co1  2  0.00000000  0.00000000  0.00000000  1
  Au  Au2  4  0.00000000  0.15927281  0.50000000  1
  Au  Au3  2  0.00000000  0.50000000  0.50000000  1
  S  S4  8  0.10234176  0.15937303  0.82722815  1
  S  S5  4  0.12496585  0.50000000  0.82721643  1
