# generated using pymatgen
data_AsPb6ClO8
_symmetry_space_group_name_H-M   'P 1'
_cell_length_a   5.84742110
_cell_length_b   7.64671183
_cell_length_c   7.64608048
_cell_angle_alpha   73.83892439
_cell_angle_beta   89.95976601
_cell_angle_gamma   89.93993532
_symmetry_Int_Tables_number   1
_chemical_formula_structural   AsPb6ClO8
_chemical_formula_sum   'As1 Pb6 Cl1 O8'
_cell_volume   328.37294139
_cell_formula_units_Z   1
loop_
 _symmetry_equiv_pos_site_id
 _symmetry_equiv_pos_as_xyz
  1  'x, y, z'
loop_
 _atom_site_type_symbol
 _atom_site_label
 _atom_site_symmetry_multiplicity
 _atom_site_fract_x
 _atom_site_fract_y
 _atom_site_fract_z
 _atom_site_occupancy
  As  As0  1  0.53797637  0.50482945  0.16613108  1
  Pb  Pb1  1  0.53787757  0.93939902  0.60351083  1
  Pb  Pb2  1  0.03755537  0.23533937  0.35165523  1
  Pb  Pb3  1  0.53800028  0.04854880  0.10766241  1
  Pb  Pb4  1  0.53833236  0.44459475  0.71001074  1
  Pb  Pb5  1  0.03795862  0.68776471  0.89740868  1
  Pb  Pb6  1  0.03876416  0.73954677  0.40055802  1
  Cl  Cl7  1  0.03786391  0.11151536  0.77576850  1
  O  O8  1  0.79102218  0.67966000  0.65825344  1
  O  O9  1  0.28558225  0.99695263  0.34303281  1
  O  O10  1  0.28577964  0.67987918  0.65836872  1
  O  O11  1  0.53752783  0.73831272  0.08353281  1
  O  O12  1  0.30230092  0.41705080  0.07887309  1
  O  O13  1  0.79058319  0.99681439  0.34302614  1
  O  O14  1  0.53720084  0.42270034  0.39982366  1
  O  O15  1  0.77419922  0.41708676  0.07931504  1
