# generated using pymatgen
data_AsPb6ClO8
_symmetry_space_group_name_H-M   Amm2
_cell_length_a   5.84742110
_cell_length_b   9.18625537
_cell_length_c   12.22629173
_cell_angle_alpha   90.00000000
_cell_angle_beta   90.00000000
_cell_angle_gamma   90.00000000
_symmetry_Int_Tables_number   38
_chemical_formula_structural   AsPb6ClO8
_chemical_formula_sum   'As2 Pb12 Cl2 O16'
_cell_volume   656.74630605
_cell_formula_units_Z   2
loop_
 _symmetry_equiv_pos_site_id
 _symmetry_equiv_pos_as_xyz
  1  'x, y, z'
  2  '-x, -y, z'
  3  '-x, y, z'
  4  'x, -y, z'
  5  'x, y+1/2, z+1/2'
  6  '-x, -y+1/2, z+1/2'
  7  '-x, y+1/2, z+1/2'
  8  'x, -y+1/2, z+1/2'
loop_
 _atom_site_type_symbol
 _atom_site_label
 _atom_site_symmetry_multiplicity
 _atom_site_fract_x
 _atom_site_fract_y
 _atom_site_fract_z
 _atom_site_occupancy
  As  As0  2  0.00000000  0.00000000  0.50482945  1
  Pb  Pb1  4  0.00000000  0.19890599  0.24745479  1
  Pb  Pb2  4  0.50000000  0.22750711  0.46284648  1
  Pb  Pb3  2  0.00000000  0.00000000  0.94080411  1
  Pb  Pb4  2  0.50000000  0.00000000  0.73940158  1
  Cl  Cl5  2  0.50000000  0.00000000  0.11299111  1
  O  O6  8  0.25304580  0.15864591  0.83830590  1
  O  O7  4  0.00000000  0.15804077  0.58027195  1
  O  O8  4  0.23567545  0.00000000  0.41731113  1
