# generated using pymatgen
data_AsPb2ClO3
_symmetry_space_group_name_H-M   P-1
_cell_length_a   5.55087135
_cell_length_b   6.78048464
_cell_length_c   8.83475336
_cell_angle_alpha   69.61699674
_cell_angle_beta   84.21569638
_cell_angle_gamma   88.95861202
_symmetry_Int_Tables_number   2
_chemical_formula_structural   AsPb2ClO3
_chemical_formula_sum   'As2 Pb4 Cl2 O6'
_cell_volume   310.06019614
_cell_formula_units_Z   2
loop_
 _symmetry_equiv_pos_site_id
 _symmetry_equiv_pos_as_xyz
  1  'x, y, z'
  2  '-x, -y, -z'
loop_
 _atom_site_type_symbol
 _atom_site_label
 _atom_site_symmetry_multiplicity
 _atom_site_fract_x
 _atom_site_fract_y
 _atom_site_fract_z
 _atom_site_occupancy
  As  As0  2  0.29686457  0.86277193  0.75533027  1
  Pb  Pb1  2  0.14545642  0.80720340  0.39979883  1
  Pb  Pb2  2  0.25282341  0.22703986  0.95872715  1
  Cl  Cl3  2  0.18068186  0.51082703  0.18168227  1
  O  O4  2  0.04783425  0.98456528  0.84409831  1
  O  O5  2  0.23582392  0.02215906  0.55383269  1
  O  O6  2  0.46945207  0.98881414  0.19750885  1
