# generated using pymatgen
data_AsPb5Cl3O5
_symmetry_space_group_name_H-M   'P 1'
_cell_length_a   5.77164870
_cell_length_b   7.31808980
_cell_length_c   8.79699679
_cell_angle_alpha   113.72165587
_cell_angle_beta   107.77263452
_cell_angle_gamma   90.71148485
_symmetry_Int_Tables_number   1
_chemical_formula_structural   AsPb5Cl3O5
_chemical_formula_sum   'As1 Pb5 Cl3 O5'
_cell_volume   320.01534877
_cell_formula_units_Z   1
loop_
 _symmetry_equiv_pos_site_id
 _symmetry_equiv_pos_as_xyz
  1  'x, y, z'
loop_
 _atom_site_type_symbol
 _atom_site_label
 _atom_site_symmetry_multiplicity
 _atom_site_fract_x
 _atom_site_fract_y
 _atom_site_fract_z
 _atom_site_occupancy
  As  As0  1  0.52312158  0.71979357  0.03114346  1
  Pb  Pb1  1  0.74867519  0.64785829  0.62628835  1
  Pb  Pb2  1  0.02716564  0.06306145  0.13839698  1
  Pb  Pb3  1  0.71501722  0.05248887  0.48023318  1
  Pb  Pb4  1  0.36346217  0.06553444  0.78047452  1
  Pb  Pb5  1  0.11394231  0.64750286  0.32073169  1
  Cl  Cl6  1  0.61453999  0.37932714  0.26023253  1
  Cl  Cl7  1  0.22889163  0.30583145  0.51542696  1
  Cl  Cl8  1  0.89339739  0.30652805  0.87771688  1
  O  O9  1  0.33777276  0.85823569  0.15939655  1
  O  O10  1  0.82721686  0.84120215  0.21188446  1
  O  O11  1  0.57566257  0.86057811  0.91244873  1
  O  O12  1  0.48391405  0.84880858  0.54736411  1
  O  O13  1  0.99719502  0.84128508  0.56911653  1
