# generated using pymatgen
data_Cs3Zr2Tl(OF4)2
_symmetry_space_group_name_H-M   'P 1'
_cell_length_a   6.21659359
_cell_length_b   8.09460344
_cell_length_c   8.65856043
_cell_angle_alpha   58.05759434
_cell_angle_beta   111.03789915
_cell_angle_gamma   112.58143598
_symmetry_Int_Tables_number   1
_chemical_formula_structural   Cs3Zr2Tl(OF4)2
_chemical_formula_sum   'Cs3 Zr2 Tl1 O2 F8'
_cell_volume   334.56665889
_cell_formula_units_Z   1
loop_
 _symmetry_equiv_pos_site_id
 _symmetry_equiv_pos_as_xyz
  1  'x, y, z'
loop_
 _atom_site_type_symbol
 _atom_site_label
 _atom_site_symmetry_multiplicity
 _atom_site_fract_x
 _atom_site_fract_y
 _atom_site_fract_z
 _atom_site_occupancy
  Cs  Cs0  1  0.80963147  0.23634042  0.38292251  1
  Cs  Cs1  1  0.76920678  0.65119982  0.88721374  1
  Cs  Cs2  1  0.12032075  0.88628287  0.35435864  1
  Zr  Zr3  1  0.48564325  0.51585097  0.45543553  1
  Zr  Zr4  1  0.08659117  0.35945184  0.81373049  1
  Tl  Tl5  1  0.47517876  0.98741418  0.96294334  1
  O  O6  1  0.28541598  0.44213815  0.63222416  1
  O  O7  1  0.78894633  0.44213815  0.63222416  1
  F  F8  1  0.91062731  0.24499485  0.03682521  1
  F  F9  1  0.65265415  0.63119093  0.22780293  1
  F  F10  1  0.22556277  0.63676028  0.81436526  1
  F  F11  1  0.20633971  0.63119093  0.22780293  1
  F  F12  1  0.37119275  0.24499485  0.03682521  1
  F  F13  1  0.95109795  0.06954740  0.83264849  1
  F  F14  1  0.34674794  0.23939927  0.45409660  1
  F  F15  1  0.61929030  0.81256591  0.42601469  1
