# generated using pymatgen
data_Cs3Zr2Tl(OF4)2
_symmetry_space_group_name_H-M   Cm
_cell_length_a   14.94805618
_cell_length_b   6.21659359
_cell_length_c   8.14440011
_cell_angle_alpha   90.00000000
_cell_angle_beta   117.85529459
_cell_angle_gamma   90.00000000
_symmetry_Int_Tables_number   8
_chemical_formula_structural   Cs3Zr2Tl(OF4)2
_chemical_formula_sum   'Cs6 Zr4 Tl2 O4 F16'
_cell_volume   669.13331777
_cell_formula_units_Z   2
loop_
 _symmetry_equiv_pos_site_id
 _symmetry_equiv_pos_as_xyz
  1  'x, y, z'
  2  'x, -y, z'
  3  'x+1/2, y+1/2, z'
  4  'x+1/2, -y+1/2, z'
loop_
 _atom_site_type_symbol
 _atom_site_label
 _atom_site_symmetry_multiplicity
 _atom_site_fract_x
 _atom_site_fract_y
 _atom_site_fract_z
 _atom_site_occupancy
  Cs  Cs0  2  0.12032075  0.00000000  0.35435864  1
  Cs  Cs1  2  0.26920678  0.50000000  0.88721374  1
  Cs  Cs2  2  0.30963147  0.50000000  0.38292251  1
  Zr  Zr3  2  0.08659117  0.00000000  0.81373049  1
  Zr  Zr4  2  0.48564325  0.00000000  0.45543553  1
  Tl  Tl5  2  0.47517876  0.00000000  0.96294334  1
  O  O6  4  0.03718115  0.24823483  0.63222416  1
  F  F7  4  0.14091003  0.23028272  0.03682521  1
  F  F8  4  0.42949693  0.22315722  0.22780293  1
  F  F9  2  0.11929030  0.50000000  0.42601469  1
  F  F10  2  0.22556277  0.00000000  0.81436526  1
  F  F11  2  0.34674794  0.00000000  0.45409660  1
  F  F12  2  0.45109795  0.50000000  0.83264849  1
