# generated using pymatgen
data_H8CS(NO)2
_symmetry_space_group_name_H-M   'P 1'
_cell_length_a   4.92612814
_cell_length_b   6.41133376
_cell_length_c   6.79174557
_cell_angle_alpha   61.27053005
_cell_angle_beta   110.96076443
_cell_angle_gamma   111.59673129
_symmetry_Int_Tables_number   1
_chemical_formula_structural   H8CS(NO)2
_chemical_formula_sum   'H8 C1 S1 N2 O2'
_cell_volume   170.53896730
_cell_formula_units_Z   1
loop_
 _symmetry_equiv_pos_site_id
 _symmetry_equiv_pos_as_xyz
  1  'x, y, z'
loop_
 _atom_site_type_symbol
 _atom_site_label
 _atom_site_symmetry_multiplicity
 _atom_site_fract_x
 _atom_site_fract_y
 _atom_site_fract_z
 _atom_site_occupancy
  H  H0  1  0.03406963  0.05660144  0.39057493  1
  H  H1  1  0.62908219  0.51455376  0.73326095  1
  H  H2  1  0.07286620  0.01726220  0.17092603  1
  H  H3  1  0.35171165  0.55184607  0.48873805  1
  H  H4  1  0.32355921  0.27418420  0.71116020  1
  H  H5  1  0.73396043  0.02423296  0.17129994  1
  H  H6  1  0.01216940  0.28944653  0.11220906  1
  H  H7  1  0.27950099  0.51728541  0.73146278  1
  C  C8  1  0.14837564  0.79269682  0.86495092  1
  S  S9  1  0.28635257  0.80461962  0.13964152  1
  N  N10  1  0.96522974  0.10111562  0.21241932  1
  N  N11  1  0.39866235  0.46487810  0.66993643  1
  O  O12  1  0.04043985  0.58082400  0.85347231  1
  O  O13  1  0.15993993  0.99423538  0.68708440  1
