# generated using pymatgen
data_Hf3ZnN
_symmetry_space_group_name_H-M   'P 1'
_cell_length_a   3.32095476
_cell_length_b   5.88522890
_cell_length_c   8.82499009
_cell_angle_alpha   90.00000000
_cell_angle_beta   90.00000000
_cell_angle_gamma   106.38815998
_symmetry_Int_Tables_number   1
_chemical_formula_structural   Hf3ZnN
_chemical_formula_sum   'Hf6 Zn2 N2'
_cell_volume   165.47322055
_cell_formula_units_Z   2
loop_
 _symmetry_equiv_pos_site_id
 _symmetry_equiv_pos_as_xyz
  1  'x, y, z'
loop_
 _atom_site_type_symbol
 _atom_site_label
 _atom_site_symmetry_multiplicity
 _atom_site_fract_x
 _atom_site_fract_y
 _atom_site_fract_z
 _atom_site_occupancy
  Hf  Hf0  1  0.37226917  0.74453835  0.95400466  1
  Hf  Hf1  1  0.37226917  0.74453835  0.54599534  1
  Hf  Hf2  1  0.62773083  0.25546165  0.04599534  1
  Hf  Hf3  1  0.62773083  0.25546165  0.45400466  1
  Hf  Hf4  1  0.04671273  0.09342547  0.75000000  1
  Hf  Hf5  1  0.95328727  0.90657453  0.25000000  1
  Zn  Zn6  1  0.25327532  0.50655064  0.25000000  1
  Zn  Zn7  1  0.74672468  0.49344936  0.75000000  1
  N  N8  1  0.00000000  0.00000000  0.50000000  1
  N  N9  1  0.00000000  0.00000000  0.00000000  1
