# generated using pymatgen
data_HfZnN2
_symmetry_space_group_name_H-M   P3m1
_cell_length_a   3.26755450
_cell_length_b   3.26755450
_cell_length_c   5.32670452
_cell_angle_alpha   90.00000000
_cell_angle_beta   90.00000000
_cell_angle_gamma   120.00000000
_symmetry_Int_Tables_number   156
_chemical_formula_structural   HfZnN2
_chemical_formula_sum   'Hf1 Zn1 N2'
_cell_volume   49.25325279
_cell_formula_units_Z   1
loop_
 _symmetry_equiv_pos_site_id
 _symmetry_equiv_pos_as_xyz
  1  'x, y, z'
  2  '-y, x-y, z'
  3  '-x+y, -x, z'
  4  '-y, -x, z'
  5  '-x+y, y, z'
  6  'x, x-y, z'
loop_
 _atom_site_type_symbol
 _atom_site_label
 _atom_site_symmetry_multiplicity
 _atom_site_fract_x
 _atom_site_fract_y
 _atom_site_fract_z
 _atom_site_occupancy
  Hf  Hf0  1  0.66666667  0.33333333  0.96493561  1
  Zn  Zn1  1  0.33333333  0.66666667  0.51544823  1
  N  N2  1  0.00000000  0.00000000  0.71364290  1
  N  N3  1  0.33333333  0.66666667  0.14913140  1
