# generated using pymatgen
data_K2Eu5Si(O4F)2
_symmetry_space_group_name_H-M   P1
_cell_length_a   6.03428499
_cell_length_b   6.90449082
_cell_length_c   7.37371565
_cell_angle_alpha   105.25429534
_cell_angle_beta   90.09222488
_cell_angle_gamma   91.79228332
_symmetry_Int_Tables_number   1
_chemical_formula_structural   K2Eu5Si(O4F)2
_chemical_formula_sum   'K2 Eu5 Si1 O8 F2'
_cell_volume   296.23164391
_cell_formula_units_Z   1
loop_
 _symmetry_equiv_pos_site_id
 _symmetry_equiv_pos_as_xyz
  1  'x, y, z'
loop_
 _atom_site_type_symbol
 _atom_site_label
 _atom_site_symmetry_multiplicity
 _atom_site_fract_x
 _atom_site_fract_y
 _atom_site_fract_z
 _atom_site_occupancy
  K  K0  1  0.88457256  0.40889184  0.06215119  1
  K  K1  1  0.90303605  0.37332165  0.60146903  1
  Eu  Eu2  1  0.38563255  0.67931762  0.15476271  1
  Eu  Eu3  1  0.38857863  0.24941929  0.30111020  1
  Eu  Eu4  1  0.40616560  0.67310647  0.65579330  1
  Eu  Eu5  1  0.91830665  0.84261711  0.45271142  1
  Eu  Eu6  1  0.95067431  0.91280474  0.96070410  1
  Si  Si7  1  0.42138858  0.15672589  0.77036920  1
  O  O8  1  0.14253583  0.97306829  0.24573472  1
  O  O9  1  0.15061891  0.64377560  0.88769426  1
  O  O10  1  0.16117200  0.56336421  0.37988897  1
  O  O11  1  0.19202915  0.00566637  0.72174839  1
  O  O12  1  0.41439292  0.28808222  0.99267218  1
  O  O13  1  0.43648194  0.30345306  0.62790954  1
  O  O14  1  0.64115242  0.00791047  0.73449829  1
  O  O15  1  0.64115755  0.58345813  0.37784057  1
  F  F16  1  0.66385817  0.98569836  0.24027531  1
  F  F17  1  0.67065639  0.65055063  0.90489798  1
