# generated using pymatgen
data_KEu3Si(OF)4
_symmetry_space_group_name_H-M   'P 1'
_cell_length_a   6.00575704
_cell_length_b   6.45305634
_cell_length_c   6.40769030
_cell_angle_alpha   75.59416481
_cell_angle_beta   89.52342852
_cell_angle_gamma   89.09831754
_symmetry_Int_Tables_number   1
_chemical_formula_structural   KEu3Si(OF)4
_chemical_formula_sum   'K1 Eu3 Si1 O4 F4'
_cell_volume   240.49276475
_cell_formula_units_Z   1
loop_
 _symmetry_equiv_pos_site_id
 _symmetry_equiv_pos_as_xyz
  1  'x, y, z'
loop_
 _atom_site_type_symbol
 _atom_site_label
 _atom_site_symmetry_multiplicity
 _atom_site_fract_x
 _atom_site_fract_y
 _atom_site_fract_z
 _atom_site_occupancy
  K  K0  1  0.27317989  0.26390299  0.97921072  1
  Eu  Eu1  1  0.73883175  0.82637195  0.01570126  1
  Eu  Eu2  1  0.80737012  0.22715205  0.41611563  1
  Eu  Eu3  1  0.27283578  0.73050345  0.51252824  1
  Si  Si4  1  0.77258523  0.44127941  0.80447992  1
  O  O5  1  0.97052719  0.47965104  0.61179517  1
  O  O6  1  0.66508473  0.20550327  0.79547781  1
  O  O7  1  0.57535876  0.63302739  0.76400791  1
  O  O8  1  0.88347770  0.44565630  0.04122085  1
  F  F9  1  0.52692203  0.00585253  0.28996074  1
  F  F10  1  0.01868130  0.95430603  0.23798284  1
  F  F11  1  0.04658962  0.94766946  0.69980827  1
  F  F12  1  0.50308244  0.54397068  0.29822975  1
