# generated using pymatgen
data_KEu3Si(OF)4
_symmetry_space_group_name_H-M   C2
_cell_length_a   10.16242283
_cell_length_b   7.88200637
_cell_length_c   6.00575704
_cell_angle_alpha   90.00000000
_cell_angle_beta   90.87305934
_cell_angle_gamma   90.00000000
_symmetry_Int_Tables_number   5
_chemical_formula_structural   KEu3Si(OF)4
_chemical_formula_sum   'K2 Eu6 Si2 O8 F8'
_cell_volume   481.00698152
_cell_formula_units_Z   2
loop_
 _symmetry_equiv_pos_site_id
 _symmetry_equiv_pos_as_xyz
  1  'x, y, z'
  2  '-x, y, -z'
  3  'x+1/2, y+1/2, z'
  4  '-x+1/2, y+1/2, -z'
loop_
 _atom_site_type_symbol
 _atom_site_label
 _atom_site_symmetry_multiplicity
 _atom_site_fract_x
 _atom_site_fract_y
 _atom_site_fract_z
 _atom_site_occupancy
  K  K0  2  0.00000000  0.02078928  0.00000000  1
  Eu  Eu1  4  0.20052025  0.78377849  0.46565186  1
  Eu  Eu2  2  0.00000000  0.48743075  0.00000000  1
  Si  Si3  2  0.00000000  0.19684289  0.50000000  1
  O  O4  4  0.07583375  0.31237108  0.69734730  1
  O  O5  4  0.12106631  0.08345588  0.39190484  1
  F  F6  4  0.02634978  0.73638904  0.74625786  1
  F  F7  4  0.20218201  0.50237374  0.22659027  1
