# generated using pymatgen
data_KEu4Si(OF2)4
_symmetry_space_group_name_H-M   P1
_cell_length_a   5.71774311
_cell_length_b   7.06938774
_cell_length_c   7.73586342
_cell_angle_alpha   103.42920734
_cell_angle_beta   96.33719690
_cell_angle_gamma   109.82246023
_symmetry_Int_Tables_number   1
_chemical_formula_structural   KEu4Si(OF2)4
_chemical_formula_sum   'K1 Eu4 Si1 O4 F8'
_cell_volume   279.94128646
_cell_formula_units_Z   1
loop_
 _symmetry_equiv_pos_site_id
 _symmetry_equiv_pos_as_xyz
  1  'x, y, z'
loop_
 _atom_site_type_symbol
 _atom_site_label
 _atom_site_symmetry_multiplicity
 _atom_site_fract_x
 _atom_site_fract_y
 _atom_site_fract_z
 _atom_site_occupancy
  K  K0  1  0.08832043  0.49885451  0.52391721  1
  Eu  Eu1  1  0.40976191  0.17933048  0.16118793  1
  Eu  Eu2  1  0.52144659  0.20904124  0.68987286  1
  Eu  Eu3  1  0.64111118  0.76462703  0.29742270  1
  Eu  Eu4  1  0.77555949  0.82441408  0.84581435  1
  Si  Si5  1  0.94562753  0.42658937  0.04174320  1
  O  O6  1  0.22793705  0.46695627  0.15459281  1
  O  O7  1  0.76823108  0.17228144  0.93936959  1
  O  O8  1  0.76986636  0.48567408  0.19003716  1
  O  O9  1  0.90896463  0.52325684  0.87004037  1
  F  F10  1  0.21200709  0.07265433  0.85604079  1
  F  F11  1  0.28982353  0.22690555  0.43723045  1
  F  F12  1  0.43812753  0.51034852  0.77266032  1
  F  F13  1  0.47559776  0.85168054  0.58699678  1
  F  F14  1  0.48238528  0.86565576  0.06372841  1
  F  F15  1  0.69259740  0.13575763  0.41477699  1
  F  F16  1  0.87436141  0.76271849  0.55984717  1
  F  F17  1  0.98625402  0.91611894  0.14701932  1
