# generated using pymatgen
data_KEu4Si2O7F5
_symmetry_space_group_name_H-M   P1
_cell_length_a   5.77788566
_cell_length_b   8.00717787
_cell_length_c   8.62504105
_cell_angle_alpha   65.72026811
_cell_angle_beta   88.71164278
_cell_angle_gamma   69.31863294
_symmetry_Int_Tables_number   1
_chemical_formula_structural   KEu4Si2O7F5
_chemical_formula_sum   'K1 Eu4 Si2 O7 F5'
_cell_volume   336.75620982
_cell_formula_units_Z   1
loop_
 _symmetry_equiv_pos_site_id
 _symmetry_equiv_pos_as_xyz
  1  'x, y, z'
loop_
 _atom_site_type_symbol
 _atom_site_label
 _atom_site_symmetry_multiplicity
 _atom_site_fract_x
 _atom_site_fract_y
 _atom_site_fract_z
 _atom_site_occupancy
  K  K0  1  0.36290134  0.69222469  0.84086130  1
  Eu  Eu1  1  0.08332549  0.34634506  0.62037451  1
  Eu  Eu2  1  0.38707886  0.71649507  0.32111211  1
  Eu  Eu3  1  0.69734408  0.07200584  0.93243723  1
  Eu  Eu4  1  0.70897647  0.09732622  0.41865843  1
  Si  Si5  1  0.13193612  0.22547870  0.10022198  1
  Si  Si6  1  0.89213713  0.60976508  0.16151424  1
  O  O7  1  0.04006415  0.76387420  0.14293515  1
  O  O8  1  0.06308933  0.46752747  0.06612966  1
  O  O9  1  0.23510518  0.22092709  0.92171584  1
  O  O10  1  0.36281933  0.06373491  0.26495419  1
  O  O11  1  0.60764170  0.76411104  0.06247372  1
  O  O12  1  0.83858302  0.46853690  0.35118909  1
  O  O13  1  0.86935109  0.17761493  0.13661522  1
  F  F14  1  0.03310814  0.73134294  0.52303122  1
  F  F15  1  0.37329713  0.39142598  0.40565896  1
  F  F16  1  0.48043165  0.04359365  0.67721369  1
  F  F17  1  0.63740724  0.44238930  0.68807657  1
  F  F18  1  0.95524208  0.06169384  0.68578819  1
