# generated using pymatgen
data_KEu4Si3O11F
_symmetry_space_group_name_H-M   'P 1'
_cell_length_a   5.47150180
_cell_length_b   6.92554419
_cell_length_c   9.33636376
_cell_angle_alpha   79.25009125
_cell_angle_beta   86.85890663
_cell_angle_gamma   67.24450681
_symmetry_Int_Tables_number   1
_chemical_formula_structural   KEu4Si3O11F
_chemical_formula_sum   'K1 Eu4 Si3 O11 F1'
_cell_volume   320.46265326
_cell_formula_units_Z   1
loop_
 _symmetry_equiv_pos_site_id
 _symmetry_equiv_pos_as_xyz
  1  'x, y, z'
loop_
 _atom_site_type_symbol
 _atom_site_label
 _atom_site_symmetry_multiplicity
 _atom_site_fract_x
 _atom_site_fract_y
 _atom_site_fract_z
 _atom_site_occupancy
  K  K0  1  0.15136990  0.54612386  0.95849156  1
  Eu  Eu1  1  0.45352900  0.85185105  0.17586912  1
  Eu  Eu2  1  0.89031138  0.14763242  0.80787156  1
  Eu  Eu3  1  0.08735457  0.38644098  0.37392974  1
  Eu  Eu4  1  0.86795843  0.93555014  0.49101693  1
  Si  Si5  1  0.47487979  0.84820511  0.75778661  1
  Si  Si6  1  0.53189036  0.55038436  0.55398736  1
  Si  Si7  1  0.73300070  0.23579582  0.18230313  1
  O  O8  1  0.52544718  0.17581631  0.30197851  1
  O  O9  1  0.64647548  0.69962878  0.43258025  1
  O  O10  1  0.03292725  0.09181896  0.26368674  1
  O  O11  1  0.75428953  0.88756047  0.75343070  1
  O  O12  1  0.67600044  0.16177026  0.03325773  1
  O  O13  1  0.72687016  0.47892587  0.15909460  1
  O  O14  1  0.25739151  0.00617495  0.63024455  1
  O  O15  1  0.32145481  0.88484996  0.91391152  1
  O  O16  1  0.56045411  0.59406470  0.72701828  1
  O  O17  1  0.22573931  0.58346999  0.52539102  1
  O  O18  1  0.74517235  0.30432801  0.55792761  1
  F  F19  1  0.12291824  0.67671596  0.20548687  1
