# generated using pymatgen
data_La2MoO5
_symmetry_space_group_name_H-M   'P 1'
_cell_length_a   6.30584987
_cell_length_b   6.86652915
_cell_length_c   7.32641544
_cell_angle_alpha   82.90914297
_cell_angle_beta   64.69702385
_cell_angle_gamma   63.05633602
_symmetry_Int_Tables_number   1
_chemical_formula_structural   La2MoO5
_chemical_formula_sum   'La4 Mo2 O10'
_cell_volume   254.69081250
_cell_formula_units_Z   2
loop_
 _symmetry_equiv_pos_site_id
 _symmetry_equiv_pos_as_xyz
  1  'x, y, z'
loop_
 _atom_site_type_symbol
 _atom_site_label
 _atom_site_symmetry_multiplicity
 _atom_site_fract_x
 _atom_site_fract_y
 _atom_site_fract_z
 _atom_site_occupancy
  La  La0  1  0.67051949  0.18997204  0.96703985  1
  La  La1  1  0.32948051  0.81002796  0.03296015  1
  La  La2  1  0.91171861  0.41888769  0.25860114  1
  La  La3  1  0.08828139  0.58111231  0.74139886  1
  Mo  Mo4  1  0.25043028  0.00420023  0.50205901  1
  Mo  Mo5  1  0.74956972  0.99579977  0.49794099  1
  O  O6  1  0.86031716  0.09997484  0.21273975  1
  O  O7  1  0.32900746  0.09716748  0.21108313  1
  O  O8  1  0.34871587  0.21656644  0.57312261  1
  O  O9  1  0.84254107  0.22092527  0.57965657  1
  O  O10  1  0.65128413  0.78343356  0.42687739  1
  O  O11  1  0.75349660  0.50072987  0.99995825  1
  O  O12  1  0.67099254  0.90283252  0.78891687  1
  O  O13  1  0.24650340  0.49927013  0.00004175  1
  O  O14  1  0.13968284  0.90002516  0.78726025  1
  O  O15  1  0.15745893  0.77907473  0.42034343  1
