# generated using pymatgen
data_LaMoO3
_symmetry_space_group_name_H-M   'P 1'
_cell_length_a   5.96171187
_cell_length_b   5.72531106
_cell_length_c   8.21647956
_cell_angle_alpha   90.00000000
_cell_angle_beta   90.00000000
_cell_angle_gamma   90.00000000
_symmetry_Int_Tables_number   1
_chemical_formula_structural   LaMoO3
_chemical_formula_sum   'La4 Mo4 O12'
_cell_volume   280.45026173
_cell_formula_units_Z   4
loop_
 _symmetry_equiv_pos_site_id
 _symmetry_equiv_pos_as_xyz
  1  'x, y, z'
loop_
 _atom_site_type_symbol
 _atom_site_label
 _atom_site_symmetry_multiplicity
 _atom_site_fract_x
 _atom_site_fract_y
 _atom_site_fract_z
 _atom_site_occupancy
  La  La0  1  0.44469046  0.01537702  0.25000000  1
  La  La1  1  0.94469046  0.48462298  0.25000000  1
  La  La2  1  0.55530954  0.98462298  0.75000000  1
  La  La3  1  0.05530954  0.51537702  0.75000000  1
  Mo  Mo4  1  0.00000000  0.00000000  0.00000000  1
  Mo  Mo5  1  0.50000000  0.50000000  0.50000000  1
  Mo  Mo6  1  0.50000000  0.50000000  0.00000000  1
  Mo  Mo7  1  0.00000000  0.00000000  0.50000000  1
  O  O8  1  0.54609016  0.61308038  0.25000000  1
  O  O9  1  0.95390984  0.11308038  0.75000000  1
  O  O10  1  0.30250155  0.80631684  0.94052080  1
  O  O11  1  0.69749845  0.19368316  0.44052080  1
  O  O12  1  0.69749845  0.19368316  0.05947920  1
  O  O13  1  0.19749845  0.30631684  0.05947920  1
  O  O14  1  0.19749845  0.30631684  0.44052080  1
  O  O15  1  0.45390984  0.38691962  0.75000000  1
  O  O16  1  0.30250155  0.80631684  0.55947920  1
  O  O17  1  0.80250155  0.69368316  0.94052080  1
  O  O18  1  0.80250155  0.69368316  0.55947920  1
  O  O19  1  0.04609016  0.88691962  0.25000000  1
