# generated using pymatgen
data_LaMoO3
_symmetry_space_group_name_H-M   Pnma
_cell_length_a   5.96171187
_cell_length_b   8.21647956
_cell_length_c   5.72531106
_cell_angle_alpha   90.00000000
_cell_angle_beta   90.00000000
_cell_angle_gamma   90.00000000
_symmetry_Int_Tables_number   62
_chemical_formula_structural   LaMoO3
_chemical_formula_sum   'La4 Mo4 O12'
_cell_volume   280.45026173
_cell_formula_units_Z   4
loop_
 _symmetry_equiv_pos_site_id
 _symmetry_equiv_pos_as_xyz
  1  'x, y, z'
  2  '-x, -y, -z'
  3  '-x+1/2, -y, z+1/2'
  4  'x+1/2, y, -z+1/2'
  5  'x+1/2, -y+1/2, -z+1/2'
  6  '-x+1/2, y+1/2, z+1/2'
  7  '-x, y+1/2, -z'
  8  'x, -y+1/2, z'
loop_
 _atom_site_type_symbol
 _atom_site_label
 _atom_site_symmetry_multiplicity
 _atom_site_fract_x
 _atom_site_fract_y
 _atom_site_fract_z
 _atom_site_occupancy
  La  La0  4  0.05530954  0.75000000  0.51537702  1
  Mo  Mo1  4  0.00000000  0.00000000  0.00000000  1
  O  O2  8  0.19749845  0.05947920  0.30631684  1
  O  O3  4  0.04609016  0.25000000  0.88691962  1
