# generated using pymatgen
data_LiPr7Te8
_symmetry_space_group_name_H-M   'P 1'
_cell_length_a   7.83445618
_cell_length_b   9.00871450
_cell_length_c   8.98468341
_cell_angle_alpha   120.08851699
_cell_angle_beta   106.70401414
_cell_angle_gamma   90.00000000
_symmetry_Int_Tables_number   1
_chemical_formula_structural   LiPr7Te8
_chemical_formula_sum   'Li1 Pr7 Te8'
_cell_volume   517.51941527
_cell_formula_units_Z   1
loop_
 _symmetry_equiv_pos_site_id
 _symmetry_equiv_pos_as_xyz
  1  'x, y, z'
loop_
 _atom_site_type_symbol
 _atom_site_label
 _atom_site_symmetry_multiplicity
 _atom_site_fract_x
 _atom_site_fract_y
 _atom_site_fract_z
 _atom_site_occupancy
  Li  Li0  1  0.50000000  0.00000000  0.00000000  1
  Pr  Pr1  1  0.98852168  0.74670861  0.49341722  1
  Pr  Pr2  1  0.00000000  0.74625102  0.00000000  1
  Pr  Pr3  1  0.50000000  0.50000000  0.50000000  1
  Pr  Pr4  1  0.00000000  0.25374898  0.00000000  1
  Pr  Pr5  1  0.01147832  0.25329139  0.50658278  1
  Pr  Pr6  1  0.50000000  0.00000000  0.50000000  1
  Pr  Pr7  1  0.50000000  0.50000000  0.00000000  1
  Te  Te8  1  0.74204172  0.88297806  0.24171662  1
  Te  Te9  1  0.25853059  0.11974193  0.23948386  1
  Te  Te10  1  0.75009656  0.37378958  0.74757916  1
  Te  Te11  1  0.24990344  0.62621042  0.25242084  1
  Te  Te12  1  0.25795828  0.64126144  0.75828338  1
  Te  Te13  1  0.74146941  0.88025807  0.76051614  1
  Te  Te14  1  0.25795828  0.11702194  0.75828338  1
  Te  Te15  1  0.74204172  0.35873856  0.24171662  1
