# generated using pymatgen
data_LiPr7Te8
_symmetry_space_group_name_H-M   C2/m
_cell_length_a   15.54802904
_cell_length_b   9.00871450
_cell_length_c   7.83445618
_cell_angle_alpha   90.00000000
_cell_angle_beta   109.40172487
_cell_angle_gamma   90.00000000
_symmetry_Int_Tables_number   12
_chemical_formula_structural   LiPr7Te8
_chemical_formula_sum   'Li2 Pr14 Te16'
_cell_volume   1035.03883053
_cell_formula_units_Z   2
loop_
 _symmetry_equiv_pos_site_id
 _symmetry_equiv_pos_as_xyz
  1  'x, y, z'
  2  '-x, -y, -z'
  3  '-x, y, -z'
  4  'x, -y, z'
  5  'x+1/2, y+1/2, z'
  6  '-x+1/2, -y+1/2, -z'
  7  '-x+1/2, y+1/2, -z'
  8  'x+1/2, -y+1/2, z'
loop_
 _atom_site_type_symbol
 _atom_site_label
 _atom_site_symmetry_multiplicity
 _atom_site_fract_x
 _atom_site_fract_y
 _atom_site_fract_z
 _atom_site_occupancy
  Li  Li0  2  0.00000000  0.00000000  0.50000000  1
  Pr  Pr1  4  0.00000000  0.25374898  0.00000000  1
  Pr  Pr2  4  0.24670861  0.50000000  0.98852168  1
  Pr  Pr3  4  0.25000000  0.25000000  0.50000000  1
  Pr  Pr4  2  0.00000000  0.50000000  0.50000000  1
  Te  Te5  8  0.12085831  0.23788025  0.74204172  1
  Te  Te6  4  0.11974193  0.00000000  0.25853059  1
  Te  Te7  4  0.12621042  0.50000000  0.24990344  1
