# generated using pymatgen
data_Mg2(Sc2C)3
_symmetry_space_group_name_H-M   C2/m
_cell_length_a   14.33619049
_cell_length_b   3.30593755
_cell_length_c   10.98315556
_cell_angle_alpha   90.00000000
_cell_angle_beta   128.38594091
_cell_angle_gamma   90.00000000
_symmetry_Int_Tables_number   12
_chemical_formula_structural   Mg2(Sc2C)3
_chemical_formula_sum   'Mg4 Sc12 C6'
_cell_volume   408.02446758
_cell_formula_units_Z   2
loop_
 _symmetry_equiv_pos_site_id
 _symmetry_equiv_pos_as_xyz
  1  'x, y, z'
  2  '-x, -y, -z'
  3  '-x, y, -z'
  4  'x, -y, z'
  5  'x+1/2, y+1/2, z'
  6  '-x+1/2, -y+1/2, -z'
  7  '-x+1/2, y+1/2, -z'
  8  'x+1/2, -y+1/2, z'
loop_
 _atom_site_type_symbol
 _atom_site_label
 _atom_site_symmetry_multiplicity
 _atom_site_fract_x
 _atom_site_fract_y
 _atom_site_fract_z
 _atom_site_occupancy
  Mg  Mg0  4  0.19047342  0.00000000  0.56326620  1
  Sc  Sc1  4  0.05351839  0.00000000  0.17303695  1
  Sc  Sc2  4  0.06730259  0.50000000  0.69423099  1
  Sc  Sc3  4  0.18099954  0.50000000  0.04440874  1
  C  C4  4  0.12122974  0.00000000  0.86242631  1
  C  C5  2  0.00000000  0.50000000  0.00000000  1
