# generated using pymatgen
data_Mn2SeO6
_symmetry_space_group_name_H-M   'P 1'
_cell_length_a   4.92705377
_cell_length_b   4.92705377
_cell_length_c   9.36705032
_cell_angle_alpha   90.00000000
_cell_angle_beta   90.00000000
_cell_angle_gamma   120.00000000
_symmetry_Int_Tables_number   1
_chemical_formula_structural   Mn2SeO6
_chemical_formula_sum   'Mn4 Se2 O12'
_cell_volume   196.92828025
_cell_formula_units_Z   2
loop_
 _symmetry_equiv_pos_site_id
 _symmetry_equiv_pos_as_xyz
  1  'x, y, z'
loop_
 _atom_site_type_symbol
 _atom_site_label
 _atom_site_symmetry_multiplicity
 _atom_site_fract_x
 _atom_site_fract_y
 _atom_site_fract_z
 _atom_site_occupancy
  Mn  Mn0  1  0.00000000  0.00000000  0.50000000  1
  Mn  Mn1  1  0.66666667  0.33333333  0.25000000  1
  Mn  Mn2  1  0.33333333  0.66666667  0.75000000  1
  Mn  Mn3  1  0.00000000  0.00000000  0.00000000  1
  Se  Se4  1  0.33333333  0.66666667  0.25000000  1
  Se  Se5  1  0.66666667  0.33333333  0.75000000  1
  O  O6  1  0.62690435  0.98511401  0.36013898  1
  O  O7  1  0.64179034  0.01488599  0.86013898  1
  O  O8  1  0.01488599  0.37309565  0.13986102  1
  O  O9  1  0.98511401  0.62690435  0.86013898  1
  O  O10  1  0.64179034  0.62690435  0.63986102  1
  O  O11  1  0.35820966  0.37309565  0.36013898  1
  O  O12  1  0.37309565  0.01488599  0.63986102  1
  O  O13  1  0.37309565  0.35820966  0.86013898  1
  O  O14  1  0.35820966  0.98511401  0.13986102  1
  O  O15  1  0.62690435  0.64179034  0.13986102  1
  O  O16  1  0.98511401  0.35820966  0.63986102  1
  O  O17  1  0.01488599  0.64179034  0.36013898  1
