# generated using pymatgen
data_Mn4Se3O11
_symmetry_space_group_name_H-M   P1
_cell_length_a   5.17661867
_cell_length_b   6.73890176
_cell_length_c   7.63369366
_cell_angle_alpha   89.82542392
_cell_angle_beta   87.61641999
_cell_angle_gamma   81.70847751
_symmetry_Int_Tables_number   1
_chemical_formula_structural   Mn4Se3O11
_chemical_formula_sum   'Mn4 Se3 O11'
_cell_volume   263.28654254
_cell_formula_units_Z   1
loop_
 _symmetry_equiv_pos_site_id
 _symmetry_equiv_pos_as_xyz
  1  'x, y, z'
loop_
 _atom_site_type_symbol
 _atom_site_label
 _atom_site_symmetry_multiplicity
 _atom_site_fract_x
 _atom_site_fract_y
 _atom_site_fract_z
 _atom_site_occupancy
  Mn  Mn0  1  0.05747613  0.64339741  0.31625825  1
  Mn  Mn1  1  0.14060804  0.69444093  0.91394050  1
  Mn  Mn2  1  0.52515686  0.87490611  0.21519584  1
  Mn  Mn3  1  0.69196609  0.42225930  0.04590752  1
  Se  Se4  1  0.27636976  0.18273412  0.82815724  1
  Se  Se5  1  0.56584125  0.53132018  0.58457646  1
  Se  Se6  1  0.94420750  0.15208120  0.40322059  1
  O  O7  1  0.04536882  0.39546866  0.88033581  1
  O  O8  1  0.09180022  0.99683857  0.86523383  1
  O  O9  1  0.15829801  0.95406552  0.31208789  1
  O  O10  1  0.23941634  0.58553465  0.53582367  1
  O  O11  1  0.36733054  0.63698676  0.15265460  1
  O  O12  1  0.48598789  0.16721779  0.00057404  1
  O  O13  1  0.53313725  0.61517592  0.79903115  1
  O  O14  1  0.64737178  0.09962374  0.34071797  1
  O  O15  1  0.70963625  0.71243002  0.46861243  1
  O  O16  1  0.84403116  0.71848689  0.11794202  1
  O  O17  1  0.96925771  0.34743007  0.26060932  1
