# generated using pymatgen
data_Mn5Se4O
_symmetry_space_group_name_H-M   'P 1'
_cell_length_a   4.04173053
_cell_length_b   4.04326917
_cell_length_c   16.63031206
_cell_angle_alpha   89.95613306
_cell_angle_beta   90.00000000
_cell_angle_gamma   119.98741258
_symmetry_Int_Tables_number   1
_chemical_formula_structural   Mn5Se4O
_chemical_formula_sum   'Mn5 Se4 O1'
_cell_volume   235.38887929
_cell_formula_units_Z   1
loop_
 _symmetry_equiv_pos_site_id
 _symmetry_equiv_pos_as_xyz
  1  'x, y, z'
loop_
 _atom_site_type_symbol
 _atom_site_label
 _atom_site_symmetry_multiplicity
 _atom_site_fract_x
 _atom_site_fract_y
 _atom_site_fract_z
 _atom_site_occupancy
  Mn  Mn0  1  0.82608225  0.65216451  0.98867464  1
  Mn  Mn1  1  0.82554520  0.65109039  0.55024589  1
  Mn  Mn2  1  0.49219748  0.98439496  0.32931340  1
  Mn  Mn3  1  0.15904101  0.31808201  0.17887920  1
  Mn  Mn4  1  0.15938367  0.31876734  0.76834039  1
  Se  Se5  1  0.82626053  0.65252107  0.70447288  1
  Se  Se6  1  0.15961104  0.31922207  0.92192009  1
  Se  Se7  1  0.49256108  0.98512217  0.10879049  1
  Se  Se8  1  0.49242876  0.98485751  0.48528542  1
  O  O9  1  0.15865861  0.31731722  0.29963276  1
