# generated using pymatgen
data_Mn5Se4O
_symmetry_space_group_name_H-M   P3m1
_cell_length_a   4.04249985
_cell_length_b   4.04249985
_cell_length_c   16.63031206
_cell_angle_alpha   90.00000000
_cell_angle_beta   90.00000000
_cell_angle_gamma   120.00000000
_symmetry_Int_Tables_number   156
_chemical_formula_structural   Mn5Se4O
_chemical_formula_sum   'Mn5 Se4 O1'
_cell_volume   235.35913270
_cell_formula_units_Z   1
loop_
 _symmetry_equiv_pos_site_id
 _symmetry_equiv_pos_as_xyz
  1  'x, y, z'
  2  '-y, x-y, z'
  3  '-x+y, -x, z'
  4  '-y, -x, z'
  5  '-x+y, y, z'
  6  'x, x-y, z'
loop_
 _atom_site_type_symbol
 _atom_site_label
 _atom_site_symmetry_multiplicity
 _atom_site_fract_x
 _atom_site_fract_y
 _atom_site_fract_z
 _atom_site_occupancy
  Mn  Mn0  1  0.00000000  0.00000000  0.17887920  1
  Mn  Mn1  1  0.00000000  0.00000000  0.76834039  1
  Mn  Mn2  1  0.33333333  0.66666667  0.32931340  1
  Mn  Mn3  1  0.66666667  0.33333333  0.55024589  1
  Mn  Mn4  1  0.66666667  0.33333333  0.98867464  1
  Se  Se5  1  0.00000000  0.00000000  0.92192009  1
  Se  Se6  1  0.33333333  0.66666667  0.10879049  1
  Se  Se7  1  0.33333333  0.66666667  0.48528542  1
  Se  Se8  1  0.66666667  0.33333333  0.70447288  1
  O  O9  1  0.00000000  0.00000000  0.29963276  1
