# generated using pymatgen
data_Mn8Se9O
_symmetry_space_group_name_H-M   P1
_cell_length_a   6.51315264
_cell_length_b   7.66604531
_cell_length_c   8.44821919
_cell_angle_alpha   76.84934922
_cell_angle_beta   75.33455644
_cell_angle_gamma   72.52944443
_symmetry_Int_Tables_number   1
_chemical_formula_structural   Mn8Se9O
_chemical_formula_sum   'Mn8 Se9 O1'
_cell_volume   383.97181144
_cell_formula_units_Z   1
loop_
 _symmetry_equiv_pos_site_id
 _symmetry_equiv_pos_as_xyz
  1  'x, y, z'
loop_
 _atom_site_type_symbol
 _atom_site_label
 _atom_site_symmetry_multiplicity
 _atom_site_fract_x
 _atom_site_fract_y
 _atom_site_fract_z
 _atom_site_occupancy
  Mn  Mn0  1  0.13254284  0.72994788  0.02851153  1
  Mn  Mn1  1  0.30540475  0.52999041  0.65054587  1
  Mn  Mn2  1  0.31997820  0.01395319  0.71336620  1
  Mn  Mn3  1  0.48396783  0.86596037  0.16537894  1
  Mn  Mn4  1  0.51617011  0.32095363  0.23709266  1
  Mn  Mn5  1  0.67964954  0.63138566  0.85669735  1
  Mn  Mn6  1  0.90434349  0.93418532  0.43639120  1
  Mn  Mn7  1  0.91432388  0.42434097  0.44589206  1
  Se  Se8  1  0.01876300  0.33668185  0.73702556  1
  Se  Se9  1  0.21387600  0.63358022  0.33764483  1
  Se  Se10  1  0.21775895  0.11634121  0.36223643  1
  Se  Se11  1  0.40782842  0.41280464  0.94715596  1
  Se  Se12  1  0.60469293  0.72840396  0.55107814  1
  Se  Se13  1  0.60533157  0.23277109  0.53752231  1
  Se  Se14  1  0.80033277  0.54111608  0.14712706  1
  Se  Se15  1  0.80511806  0.01874627  0.14186032  1
  Se  Se16  1  0.99979310  0.82679770  0.74085899  1
  O  O17  1  0.40030717  0.85402341  0.94061124  1
