# generated using pymatgen
data_NaLaScSbO6
_symmetry_space_group_name_H-M   P2_1
_cell_length_a   5.65837778
_cell_length_b   5.69854593
_cell_length_c   8.09561797
_cell_angle_alpha   90.00000000
_cell_angle_beta   90.01650714
_cell_angle_gamma   90.00000000
_symmetry_Int_Tables_number   4
_chemical_formula_structural   NaLaScSbO6
_chemical_formula_sum   'Na2 La2 Sc2 Sb2 O12'
_cell_volume   261.03935029
_cell_formula_units_Z   2
loop_
 _symmetry_equiv_pos_site_id
 _symmetry_equiv_pos_as_xyz
  1  'x, y, z'
  2  '-x, y+1/2, -z'
loop_
 _atom_site_type_symbol
 _atom_site_label
 _atom_site_symmetry_multiplicity
 _atom_site_fract_x
 _atom_site_fract_y
 _atom_site_fract_z
 _atom_site_occupancy
  Na  Na0  2  0.24433237  0.52949911  0.50018300  1
  La  La1  2  0.25453704  0.58229466  0.00085014  1
  Sc  Sc2  2  0.24783174  0.05084973  0.27019088  1
  Sb  Sb3  2  0.24992285  0.04801558  0.74378639  1
  O  O4  2  0.03898123  0.74596284  0.27382782  1
  O  O5  2  0.05513773  0.75562464  0.72463843  1
  O  O6  2  0.17391642  0.03086779  0.99325636  1
  O  O7  2  0.33455543  0.07380645  0.51022789  1
  O  O8  2  0.46505750  0.31878361  0.80675563  1
  O  O9  2  0.47912964  0.33083687  0.19711905  1
