# generated using pymatgen
data_NaLaScSbO6
_symmetry_space_group_name_H-M   'P 1'
_cell_length_a   5.65837778
_cell_length_b   5.69854593
_cell_length_c   8.09561797
_cell_angle_alpha   90.02877121
_cell_angle_beta   89.98349286
_cell_angle_gamma   90.02151245
_symmetry_Int_Tables_number   1
_chemical_formula_structural   NaLaScSbO6
_chemical_formula_sum   'Na2 La2 Sc2 Sb2 O12'
_cell_volume   261.03929900
_cell_formula_units_Z   2
loop_
 _symmetry_equiv_pos_site_id
 _symmetry_equiv_pos_as_xyz
  1  'x, y, z'
loop_
 _atom_site_type_symbol
 _atom_site_label
 _atom_site_symmetry_multiplicity
 _atom_site_fract_x
 _atom_site_fract_y
 _atom_site_fract_z
 _atom_site_occupancy
  Na  Na0  1  0.40356908  0.47050089  0.10249120  1
  Na  Na1  1  0.91490434  0.96923576  0.10285720  1
  La  La2  1  0.41377374  0.41770534  0.60182406  1
  La  La3  1  0.90584984  0.91741727  0.60162542  1
  Sc  Sc4  1  0.40706844  0.94915027  0.33248332  1
  Sc  Sc5  1  0.91249936  0.44965919  0.87095793  1
  Sb  Sb6  1  0.40915956  0.95198442  0.85888782  1
  Sb  Sb7  1  0.91018751  0.45102795  0.34449248  1
  O  O8  1  0.12025548  0.75403716  0.87650202  1
  O  O9  1  0.98532029  0.46913221  0.59593056  1
  O  O10  1  0.21437443  0.24437536  0.87803578  1
  O  O11  1  0.63836634  0.66916313  0.40555515  1
  O  O12  1  0.49379214  0.92619355  0.09244631  1
  O  O13  1  0.10895880  0.73982939  0.32380819  1
  O  O14  1  0.19595525  0.24951729  0.32771225  1
  O  O15  1  0.62429420  0.68121639  0.79591857  1
  O  O16  1  0.33419574  0.96778803  0.60759161  1
  O  O17  1  0.82562762  0.42480734  0.11084734  1
  O  O18  1  0.69364677  0.18191115  0.40802912  1
  O  O19  1  0.68290321  0.16820925  0.79717105  1
