# generated using pymatgen
data_Rb3Dy2(CuCl6)2
_symmetry_space_group_name_H-M   C222
_cell_length_a   9.86232704
_cell_length_b   9.98733948
_cell_length_c   11.36036134
_cell_angle_alpha   90.00000000
_cell_angle_beta   90.00000000
_cell_angle_gamma   90.00000000
_symmetry_Int_Tables_number   21
_chemical_formula_structural   Rb3Dy2(CuCl6)2
_chemical_formula_sum   'Rb6 Dy4 Cu4 Cl24'
_cell_volume   1118.97750850
_cell_formula_units_Z   2
loop_
 _symmetry_equiv_pos_site_id
 _symmetry_equiv_pos_as_xyz
  1  'x, y, z'
  2  '-x, -y, z'
  3  'x, -y, -z'
  4  '-x, y, -z'
  5  'x+1/2, y+1/2, z'
  6  '-x+1/2, -y+1/2, z'
  7  'x+1/2, -y+1/2, -z'
  8  '-x+1/2, y+1/2, -z'
loop_
 _atom_site_type_symbol
 _atom_site_label
 _atom_site_symmetry_multiplicity
 _atom_site_fract_x
 _atom_site_fract_y
 _atom_site_fract_z
 _atom_site_occupancy
  Rb  Rb0  2  0.00000000  0.00000000  0.00000000  1
  Rb  Rb1  2  0.00000000  0.00000000  0.50000000  1
  Rb  Rb2  2  0.00000000  0.50000000  0.00000000  1
  Dy  Dy3  4  0.25000000  0.25000000  0.25938878  1
  Cu  Cu4  4  0.25000000  0.25000000  0.73425436  1
  Cl  Cl5  8  0.01558932  0.29753012  0.75502365  1
  Cl  Cl6  8  0.19854481  0.01289949  0.75267153  1
  Cl  Cl7  4  0.25000000  0.25000000  0.02460260  1
  Cl  Cl8  4  0.25000000  0.25000000  0.48777363  1
