# generated using pymatgen
data_Rb3Dy2(CuCl6)2
_symmetry_space_group_name_H-M   'P 1'
_cell_length_a   7.03210544
_cell_length_b   7.00397854
_cell_length_c   11.36036134
_cell_angle_alpha   90.03905561
_cell_angle_beta   90.02213294
_cell_angle_gamma   90.72168952
_symmetry_Int_Tables_number   1
_chemical_formula_structural   Rb3Dy2(CuCl6)2
_chemical_formula_sum   'Rb3 Dy2 Cu2 Cl12'
_cell_volume   559.48408657
_cell_formula_units_Z   1
loop_
 _symmetry_equiv_pos_site_id
 _symmetry_equiv_pos_as_xyz
  1  'x, y, z'
loop_
 _atom_site_type_symbol
 _atom_site_label
 _atom_site_symmetry_multiplicity
 _atom_site_fract_x
 _atom_site_fract_y
 _atom_site_fract_z
 _atom_site_occupancy
  Rb  Rb0  1  0.75235053  0.15340891  0.17756629  1
  Rb  Rb1  1  0.74922778  0.15561547  0.67785352  1
  Rb  Rb2  1  0.25198634  0.65416094  0.17760425  1
  Dy  Dy3  1  0.25069012  0.15438993  0.91835079  1
  Dy  Dy4  1  0.75077014  0.65439940  0.43712835  1
  Cu  Cu5  1  0.25072841  0.15435841  0.44348521  1
  Cu  Cu6  1  0.75086945  0.65446447  0.91177946  1
  Cl  Cl7  1  0.53924582  0.96866459  0.42506804  1
  Cl  Cl8  1  0.25177905  0.15609578  0.15313697  1
  Cl  Cl9  1  0.96198727  0.33999742  0.42641961  1
  Cl  Cl10  1  0.03263092  0.84119047  0.93276322  1
  Cl  Cl11  1  0.24984897  0.15163487  0.68996594  1
  Cl  Cl12  1  0.56471906  0.94268508  0.93019134  1
  Cl  Cl13  1  0.06415508  0.87222581  0.42282222  1
  Cl  Cl14  1  0.93665664  0.36613140  0.92928621  1
  Cl  Cl15  1  0.43688859  0.43699211  0.42572763  1
  Cl  Cl16  1  0.75022901  0.65233573  0.20245246  1
  Cl  Cl17  1  0.75179643  0.65643491  0.66550222  1
  Cl  Cl18  1  0.46832882  0.46806457  0.92952724  1
