# generated using pymatgen
data_Sr2(CuAs)3
_symmetry_space_group_name_H-M   I-4m2
_cell_length_a   4.26629581
_cell_length_b   4.26629581
_cell_length_c   35.90454514
_cell_angle_alpha   90.00000000
_cell_angle_beta   90.00000000
_cell_angle_gamma   90.00000000
_symmetry_Int_Tables_number   119
_chemical_formula_structural   Sr2(CuAs)3
_chemical_formula_sum   'Sr8 Cu12 As12'
_cell_volume   653.50867624
_cell_formula_units_Z   4
loop_
 _symmetry_equiv_pos_site_id
 _symmetry_equiv_pos_as_xyz
  1  'x, y, z'
  2  'y, -x, -z'
  3  '-x, -y, z'
  4  '-y, x, -z'
  5  '-x, y, z'
  6  '-y, -x, -z'
  7  'x, -y, z'
  8  'y, x, -z'
  9  'x+1/2, y+1/2, z+1/2'
  10  'y+1/2, -x+1/2, -z+1/2'
  11  '-x+1/2, -y+1/2, z+1/2'
  12  '-y+1/2, x+1/2, -z+1/2'
  13  '-x+1/2, y+1/2, z+1/2'
  14  '-y+1/2, -x+1/2, -z+1/2'
  15  'x+1/2, -y+1/2, z+1/2'
  16  'y+1/2, x+1/2, -z+1/2'
loop_
 _atom_site_type_symbol
 _atom_site_label
 _atom_site_symmetry_multiplicity
 _atom_site_fract_x
 _atom_site_fract_y
 _atom_site_fract_z
 _atom_site_occupancy
  Sr  Sr0  4  0.00000000  0.00000000  0.17981719  1
  Sr  Sr1  4  0.00000000  0.50000000  0.57326439  1
  Cu  Cu2  4  0.00000000  0.00000000  0.35669726  1
  Cu  Cu3  2  0.00000000  0.00000000  0.00000000  1
  Cu  Cu4  2  0.00000000  0.00000000  0.50000000  1
  Cu  Cu5  2  0.00000000  0.50000000  0.25000000  1
  Cu  Cu6  2  0.00000000  0.50000000  0.75000000  1
  As  As7  4  0.00000000  0.00000000  0.28832370  1
  As  As8  4  0.00000000  0.50000000  0.03713013  1
  As  As9  4  0.00000000  0.50000000  0.11221589  1
