# generated using pymatgen
data_Sr2(CuAs)3
_symmetry_space_group_name_H-M   'P 1'
_cell_length_a   4.26558014
_cell_length_b   4.26701148
_cell_length_c   18.20348245
_cell_angle_alpha   83.27154470
_cell_angle_beta   83.28259678
_cell_angle_gamma   89.99970160
_symmetry_Int_Tables_number   1
_chemical_formula_structural   Sr2(CuAs)3
_chemical_formula_sum   'Sr4 Cu6 As6'
_cell_volume   326.75432246
_cell_formula_units_Z   2
loop_
 _symmetry_equiv_pos_site_id
 _symmetry_equiv_pos_as_xyz
  1  'x, y, z'
loop_
 _atom_site_type_symbol
 _atom_site_label
 _atom_site_symmetry_multiplicity
 _atom_site_fract_x
 _atom_site_fract_y
 _atom_site_fract_z
 _atom_site_occupancy
  Sr  Sr0  1  0.23736716  0.14419959  0.91421726  1
  Sr  Sr1  1  0.63035583  0.03845916  0.12732288  1
  Sr  Sr2  1  0.98195853  0.39141672  0.42111751  1
  Sr  Sr3  1  0.87626400  0.78457093  0.63348603  1
  Cu  Cu4  1  0.55595498  0.46548617  0.27458920  1
  Cu  Cu5  1  0.05595928  0.96470422  0.27437245  1
  Cu  Cu6  1  0.80712208  0.21373878  0.77376990  1
  Cu  Cu7  1  0.41247857  0.32136480  0.56045712  1
  Cu  Cu8  1  0.70085961  0.60766441  0.98759839  1
  Cu  Cu9  1  0.30706952  0.71433676  0.77369001  1
  As  As10  1  0.44295018  0.85246592  0.49828343  1
  As  As11  1  0.16954039  0.57684913  0.05016282  1
  As  As12  1  0.51896595  0.92842166  0.34811191  1
  As  As13  1  0.09308599  0.50156354  0.20073183  1
  As  As14  1  0.76893002  0.67563020  0.85049905  1
  As  As15  1  0.34507153  0.25269830  0.69710978  1
