# generated using pymatgen
data_Sr3V2O8
_symmetry_space_group_name_H-M   'P 1'
_cell_length_a   5.72411866
_cell_length_b   5.72717086
_cell_length_c   7.51408862
_cell_angle_alpha   67.76825153
_cell_angle_beta   67.68032272
_cell_angle_gamma   60.15959117
_symmetry_Int_Tables_number   1
_chemical_formula_structural   Sr3V2O8
_chemical_formula_sum   'Sr3 V2 O8'
_cell_volume   192.08140246
_cell_formula_units_Z   1
loop_
 _symmetry_equiv_pos_site_id
 _symmetry_equiv_pos_as_xyz
  1  'x, y, z'
loop_
 _atom_site_type_symbol
 _atom_site_label
 _atom_site_symmetry_multiplicity
 _atom_site_fract_x
 _atom_site_fract_y
 _atom_site_fract_z
 _atom_site_occupancy
  Sr  Sr0  1  0.79832434  0.79942518  0.60317392  1
  Sr  Sr1  1  0.20167566  0.20057482  0.39682608  1
  Sr  Sr2  1  0.00000000  0.00000000  0.00000000  1
  V  V3  1  0.40748783  0.40438299  0.78105904  1
  V  V4  1  0.59251217  0.59561701  0.21894096  1
  O  O5  1  0.31375717  0.22350570  0.69663934  1
  O  O6  1  0.76617202  0.31011321  0.69726625  1
  O  O7  1  0.22754230  0.76205551  0.69713399  1
  O  O8  1  0.68624283  0.77649430  0.30336066  1
  O  O9  1  0.32254435  0.31971091  0.03504322  1
  O  O10  1  0.67745565  0.68028909  0.96495678  1
  O  O11  1  0.23382798  0.68988679  0.30273375  1
  O  O12  1  0.77245770  0.23794449  0.30286601  1
