# generated using pymatgen
data_SrV2O4
_symmetry_space_group_name_H-M   C2/m
_cell_length_a   12.23707727
_cell_length_b   6.06570054
_cell_length_c   5.32205669
_cell_angle_alpha   90.00000000
_cell_angle_beta   105.66102507
_cell_angle_gamma   90.00000000
_symmetry_Int_Tables_number   12
_chemical_formula_structural   SrV2O4
_chemical_formula_sum   'Sr4 V8 O16'
_cell_volume   380.37182911
_cell_formula_units_Z   4
loop_
 _symmetry_equiv_pos_site_id
 _symmetry_equiv_pos_as_xyz
  1  'x, y, z'
  2  '-x, -y, -z'
  3  '-x, y, -z'
  4  'x, -y, z'
  5  'x+1/2, y+1/2, z'
  6  '-x+1/2, -y+1/2, -z'
  7  '-x+1/2, y+1/2, -z'
  8  'x+1/2, -y+1/2, z'
loop_
 _atom_site_type_symbol
 _atom_site_label
 _atom_site_symmetry_multiplicity
 _atom_site_fract_x
 _atom_site_fract_y
 _atom_site_fract_z
 _atom_site_occupancy
  Sr  Sr0  4  0.24558186  0.00000000  0.29723429  1
  V  V1  4  0.00000000  0.25339197  0.00000000  1
  V  V2  2  0.00000000  0.00000000  0.50000000  1
  V  V3  2  0.00000000  0.50000000  0.50000000  1
  O  O4  8  0.09858439  0.25407339  0.39916301  1
  O  O5  4  0.08639505  0.00000000  0.88660411  1
  O  O6  4  0.08950200  0.50000000  0.88630162  1
