# generated using pymatgen
data_SrV2O4
_symmetry_space_group_name_H-M   'P 1'
_cell_length_a   5.32205669
_cell_length_b   6.06570054
_cell_length_c   6.79311273
_cell_angle_alpha   115.76039784
_cell_angle_beta   103.70781845
_cell_angle_gamma   90.79165071
_symmetry_Int_Tables_number   1
_chemical_formula_structural   SrV2O4
_chemical_formula_sum   'Sr2 V4 O8'
_cell_volume   190.15864342
_cell_formula_units_Z   2
loop_
 _symmetry_equiv_pos_site_id
 _symmetry_equiv_pos_as_xyz
  1  'x, y, z'
loop_
 _atom_site_type_symbol
 _atom_site_label
 _atom_site_symmetry_multiplicity
 _atom_site_fract_x
 _atom_site_fract_y
 _atom_site_fract_z
 _atom_site_occupancy
  Sr  Sr0  1  0.29723429  0.24339108  0.98897295  1
  Sr  Sr1  1  0.70276571  0.75660892  0.01102705  1
  V  V2  1  0.50000000  0.00000000  0.50000000  1
  V  V3  1  0.50000000  0.50000000  0.50000000  1
  V  V4  1  0.99986205  0.25457536  0.50017601  1
  V  V5  1  0.00013795  0.74542464  0.49982399  1
  O  O6  1  0.39916301  0.35265778  0.69497799  1
  O  O7  1  0.39997458  0.84777318  0.69415442  1
  O  O8  1  0.88630162  0.58547755  0.67681323  1
  O  O9  1  0.11339589  0.91515171  0.32501912  1
  O  O10  1  0.11369838  0.41452245  0.32318677  1
  O  O11  1  0.88660411  0.08484829  0.67498088  1
  O  O12  1  0.60002542  0.15222682  0.30584558  1
  O  O13  1  0.60083699  0.64734222  0.30502201  1
