# generated using pymatgen
data_SrV2O6
_symmetry_space_group_name_H-M   'P 1'
_cell_length_a   3.78110381
_cell_length_b   5.87562060
_cell_length_c   7.42507057
_cell_angle_alpha   101.11090011
_cell_angle_beta   90.07429972
_cell_angle_gamma   108.64026043
_symmetry_Int_Tables_number   1
_chemical_formula_structural   SrV2O6
_chemical_formula_sum   'Sr1 V2 O6'
_cell_volume   153.02376546
_cell_formula_units_Z   1
loop_
 _symmetry_equiv_pos_site_id
 _symmetry_equiv_pos_as_xyz
  1  'x, y, z'
loop_
 _atom_site_type_symbol
 _atom_site_label
 _atom_site_symmetry_multiplicity
 _atom_site_fract_x
 _atom_site_fract_y
 _atom_site_fract_z
 _atom_site_occupancy
  Sr  Sr0  1  0.45570885  0.74499048  0.36646009  1
  V  V1  1  0.20761592  0.24996571  0.70002404  1
  V  V2  1  0.70383741  0.24083657  0.03353145  1
  O  O3  1  0.21440449  0.26229861  0.96861547  1
  O  O4  1  0.08320800  0.00079894  0.52151124  1
  O  O5  1  0.82839166  0.48974361  0.21228936  1
  O  O6  1  0.69747881  0.22917563  0.76521960  1
  O  O7  1  0.57682680  0.98439583  0.11398263  1
  O  O8  1  0.33438854  0.50598316  0.61906421  1
