# generated using pymatgen
data_SrV2O6
_symmetry_space_group_name_H-M   C2/m
_cell_length_a   11.13484700
_cell_length_b   3.78110381
_cell_length_c   7.42507057
_cell_angle_alpha   90.00000000
_cell_angle_beta   101.76024518
_cell_angle_gamma   90.00000000
_symmetry_Int_Tables_number   12
_chemical_formula_structural   SrV2O6
_chemical_formula_sum   'Sr2 V4 O12'
_cell_volume   306.04842106
_cell_formula_units_Z   2
loop_
 _symmetry_equiv_pos_site_id
 _symmetry_equiv_pos_as_xyz
  1  'x, y, z'
  2  '-x, -y, -z'
  3  '-x, y, -z'
  4  'x, -y, z'
  5  'x+1/2, y+1/2, z'
  6  '-x+1/2, -y+1/2, -z'
  7  '-x+1/2, y+1/2, -z'
  8  'x+1/2, -y+1/2, z'
loop_
 _atom_site_type_symbol
 _atom_site_label
 _atom_site_symmetry_multiplicity
 _atom_site_fract_x
 _atom_site_fract_y
 _atom_site_fract_z
 _atom_site_occupancy
  Sr  Sr0  2  0.00000000  0.00000000  0.00000000  1
  V  V1  4  0.24751238  0.00000000  0.66643605  1
  O  O2  4  0.11970268  0.00000000  0.74752254  1
  O  O3  4  0.12790423  0.50000000  0.15505115  1
  O  O4  4  0.24134593  0.00000000  0.39784462  1
