# generated using pymatgen
data_Ti2ZnN
_symmetry_space_group_name_H-M   'P 1'
_cell_length_a   3.00963077
_cell_length_b   4.17958153
_cell_length_c   8.31110487
_cell_angle_alpha   90.00000000
_cell_angle_beta   100.43155510
_cell_angle_gamma   90.00000000
_symmetry_Int_Tables_number   1
_chemical_formula_structural   Ti2ZnN
_chemical_formula_sum   'Ti4 Zn2 N2'
_cell_volume   102.81742874
_cell_formula_units_Z   2
loop_
 _symmetry_equiv_pos_site_id
 _symmetry_equiv_pos_as_xyz
  1  'x, y, z'
loop_
 _atom_site_type_symbol
 _atom_site_label
 _atom_site_symmetry_multiplicity
 _atom_site_fract_x
 _atom_site_fract_y
 _atom_site_fract_z
 _atom_site_occupancy
  Ti  Ti0  1  0.28819076  0.75000000  0.57638151  1
  Ti  Ti1  1  0.71180924  0.25000000  0.42361849  1
  Ti  Ti2  1  0.88712963  0.25000000  0.77425925  1
  Ti  Ti3  1  0.11287037  0.75000000  0.22574075  1
  Zn  Zn4  1  0.54141712  0.25000000  0.08283425  1
  Zn  Zn5  1  0.45858288  0.75000000  0.91716575  1
  N  N6  1  0.30021516  0.25000000  0.60043032  1
  N  N7  1  0.69978484  0.75000000  0.39956968  1
