# generated using pymatgen
data_Ti3ZnN
_symmetry_space_group_name_H-M   Cmcm
_cell_length_a   3.07135688
_cell_length_b   10.72072070
_cell_length_c   8.34643375
_cell_angle_alpha   90.00000000
_cell_angle_beta   90.00000000
_cell_angle_gamma   90.00000000
_symmetry_Int_Tables_number   63
_chemical_formula_structural   Ti3ZnN
_chemical_formula_sum   'Ti12 Zn4 N4'
_cell_volume   274.82435351
_cell_formula_units_Z   4
loop_
 _symmetry_equiv_pos_site_id
 _symmetry_equiv_pos_as_xyz
  1  'x, y, z'
  2  '-x, -y, -z'
  3  '-x, -y, z+1/2'
  4  'x, y, -z+1/2'
  5  'x, -y, -z'
  6  '-x, y, z'
  7  '-x, y, -z+1/2'
  8  'x, -y, z+1/2'
  9  'x+1/2, y+1/2, z'
  10  '-x+1/2, -y+1/2, -z'
  11  '-x+1/2, -y+1/2, z+1/2'
  12  'x+1/2, y+1/2, -z+1/2'
  13  'x+1/2, -y+1/2, -z'
  14  '-x+1/2, y+1/2, z'
  15  '-x+1/2, y+1/2, -z+1/2'
  16  'x+1/2, -y+1/2, z+1/2'
loop_
 _atom_site_type_symbol
 _atom_site_label
 _atom_site_symmetry_multiplicity
 _atom_site_fract_x
 _atom_site_fract_y
 _atom_site_fract_z
 _atom_site_occupancy
  Ti  Ti0  8  0.00000000  0.12485222  0.04057712  1
  Ti  Ti1  4  0.00000000  0.46337563  0.25000000  1
  Zn  Zn2  4  0.00000000  0.24543178  0.75000000  1
  N  N3  4  0.00000000  0.50000000  0.00000000  1
