# generated using pymatgen
data_Ti3ZnN
_symmetry_space_group_name_H-M   'P 1'
_cell_length_a   3.07135688
_cell_length_b   5.57599958
_cell_length_c   8.34643375
_cell_angle_alpha   90.00000000
_cell_angle_beta   90.00000000
_cell_angle_gamma   105.98636768
_symmetry_Int_Tables_number   1
_chemical_formula_structural   Ti3ZnN
_chemical_formula_sum   'Ti6 Zn2 N2'
_cell_volume   137.41217675
_cell_formula_units_Z   2
loop_
 _symmetry_equiv_pos_site_id
 _symmetry_equiv_pos_as_xyz
  1  'x, y, z'
loop_
 _atom_site_type_symbol
 _atom_site_label
 _atom_site_symmetry_multiplicity
 _atom_site_fract_x
 _atom_site_fract_y
 _atom_site_fract_z
 _atom_site_occupancy
  Ti  Ti0  1  0.46337563  0.92675127  0.25000000  1
  Ti  Ti1  1  0.12485222  0.24970444  0.04057712  1
  Ti  Ti2  1  0.87514778  0.75029556  0.54057712  1
  Ti  Ti3  1  0.53662437  0.07324873  0.75000000  1
  Ti  Ti4  1  0.87514778  0.75029556  0.95942288  1
  Ti  Ti5  1  0.12485222  0.24970444  0.45942288  1
  Zn  Zn6  1  0.75456822  0.50913644  0.25000000  1
  Zn  Zn7  1  0.24543178  0.49086356  0.75000000  1
  N  N8  1  0.50000000  0.00000000  0.50000000  1
  N  N9  1  0.50000000  0.00000000  0.00000000  1
