# generated using pymatgen
data_TiZnN2
_symmetry_space_group_name_H-M   'P 1'
_cell_length_a   5.24401273
_cell_length_b   5.69459171
_cell_length_c   6.58017863
_cell_angle_alpha   90.00000000
_cell_angle_beta   89.99955044
_cell_angle_gamma   90.00000000
_symmetry_Int_Tables_number   1
_chemical_formula_structural   TiZnN2
_chemical_formula_sum   'Ti4 Zn4 N8'
_cell_volume   196.50065962
_cell_formula_units_Z   4
loop_
 _symmetry_equiv_pos_site_id
 _symmetry_equiv_pos_as_xyz
  1  'x, y, z'
loop_
 _atom_site_type_symbol
 _atom_site_label
 _atom_site_symmetry_multiplicity
 _atom_site_fract_x
 _atom_site_fract_y
 _atom_site_fract_z
 _atom_site_occupancy
  Ti  Ti0  1  0.06363333  0.83301289  0.42884378  1
  Ti  Ti1  1  0.56363333  0.16698711  0.92884378  1
  Ti  Ti2  1  0.56368761  0.66694372  0.17769953  1
  Ti  Ti3  1  0.06368761  0.33305628  0.67769953  1
  Zn  Zn4  1  0.56267272  0.66309019  0.67936726  1
  Zn  Zn5  1  0.06224974  0.83678748  0.92726619  1
  Zn  Zn6  1  0.56224974  0.16321252  0.42726619  1
  Zn  Zn7  1  0.06267272  0.33690981  0.17936726  1
  N  N8  1  0.19460545  0.67984695  0.18893881  1
  N  N9  1  0.16814272  0.65992506  0.66753665  1
  N  N10  1  0.16790407  0.15988254  0.43903325  1
  N  N11  1  0.69455479  0.82026883  0.41754301  1
  N  N12  1  0.66790407  0.84011746  0.93903325  1
  N  N13  1  0.69460545  0.32015305  0.68893881  1
  N  N14  1  0.19455479  0.17973117  0.91754301  1
  N  N15  1  0.66814272  0.34007494  0.16753665  1
