# generated using pymatgen
data_Zr3ZnN
_symmetry_space_group_name_H-M   'P 1'
_cell_length_a   3.36294103
_cell_length_b   6.00323358
_cell_length_c   8.94287801
_cell_angle_alpha   90.00000000
_cell_angle_beta   90.00000000
_cell_angle_gamma   106.26582304
_symmetry_Int_Tables_number   1
_chemical_formula_structural   Zr3ZnN
_chemical_formula_sum   'Zr6 Zn2 N2'
_cell_volume   173.31677893
_cell_formula_units_Z   2
loop_
 _symmetry_equiv_pos_site_id
 _symmetry_equiv_pos_as_xyz
  1  'x, y, z'
loop_
 _atom_site_type_symbol
 _atom_site_label
 _atom_site_symmetry_multiplicity
 _atom_site_fract_x
 _atom_site_fract_y
 _atom_site_fract_z
 _atom_site_occupancy
  Zr  Zr0  1  0.12627035  0.25254069  0.95252808  1
  Zr  Zr1  1  0.54784988  0.09569976  0.25000000  1
  Zr  Zr2  1  0.45215012  0.90430024  0.75000000  1
  Zr  Zr3  1  0.12627035  0.25254069  0.54747192  1
  Zr  Zr4  1  0.87372965  0.74745931  0.45252808  1
  Zr  Zr5  1  0.87372965  0.74745931  0.04747192  1
  Zn  Zn6  1  0.24550834  0.49101667  0.25000000  1
  Zn  Zn7  1  0.75449166  0.50898333  0.75000000  1
  N  N8  1  0.50000000  0.00000000  0.00000000  1
  N  N9  1  0.50000000  0.00000000  0.50000000  1
