# generated using pymatgen
data_Zr3ZnN
_symmetry_space_group_name_H-M   Cmcm
_cell_length_a   3.36294103
_cell_length_b   11.52587876
_cell_length_c   8.94287801
_cell_angle_alpha   90.00000000
_cell_angle_beta   90.00000000
_cell_angle_gamma   90.00000000
_symmetry_Int_Tables_number   63
_chemical_formula_structural   Zr3ZnN
_chemical_formula_sum   'Zr12 Zn4 N4'
_cell_volume   346.63355786
_cell_formula_units_Z   4
loop_
 _symmetry_equiv_pos_site_id
 _symmetry_equiv_pos_as_xyz
  1  'x, y, z'
  2  '-x, -y, -z'
  3  '-x, -y, z+1/2'
  4  'x, y, -z+1/2'
  5  'x, -y, -z'
  6  '-x, y, z'
  7  '-x, y, -z+1/2'
  8  'x, -y, z+1/2'
  9  'x+1/2, y+1/2, z'
  10  '-x+1/2, -y+1/2, -z'
  11  '-x+1/2, -y+1/2, z+1/2'
  12  'x+1/2, y+1/2, -z+1/2'
  13  'x+1/2, -y+1/2, -z'
  14  '-x+1/2, y+1/2, z'
  15  '-x+1/2, y+1/2, -z+1/2'
  16  'x+1/2, -y+1/2, z+1/2'
loop_
 _atom_site_type_symbol
 _atom_site_label
 _atom_site_symmetry_multiplicity
 _atom_site_fract_x
 _atom_site_fract_y
 _atom_site_fract_z
 _atom_site_occupancy
  Zr  Zr0  8  0.00000000  0.12627035  0.54747192  1
  Zr  Zr1  4  0.00000000  0.45215012  0.75000000  1
  Zn  Zn2  4  0.00000000  0.24550834  0.25000000  1
  N  N3  4  0.00000000  0.50000000  0.00000000  1
